xflr5 v6.12

Wing name :        Q1
Wing polar name :  T1-111.8 m/s-VLM2
Freestream speed : 111.760 m/s
X_CG: 1.03m
Z_CG: 0.03507m

   alpha      Beta       CL          CDi        CDv        CD         CY         Cl         Cm         Cn        Cni       QInf        XCP
  -11.000     0.000  -0.740860   0.011432   0.019992   0.031424   0.000000   0.000000  -0.175655   0.000000  -0.000000  111.7600     0.7157
  -10.500     0.000  -0.694673   0.010053   0.010546   0.020599   0.000000   0.000000  -0.169394  -0.000000  -0.000000  111.7600     0.7062
  -10.000     0.000  -0.648352   0.008759   0.009808   0.018566   0.000000   0.000000  -0.163274  -0.000000  -0.000000  111.7600     0.6955
   -9.500     0.000  -0.601907   0.007549   0.009417   0.016967   0.000000   0.000000  -0.157109   0.000000   0.000000  111.7600     0.6832
   -9.000     0.000  -0.555343   0.006427   0.009077   0.015504   0.000000   0.000000  -0.150897  -0.000000  -0.000000  111.7600     0.6689
   -8.500     0.000  -0.508671   0.005392   0.008779   0.014171   0.000000   0.000000  -0.144639   0.000000   0.000000  111.7600     0.6521
   -8.000     0.000  -0.461898   0.004446   0.008516   0.012962   0.000000   0.000000  -0.138338   0.000000   0.000000  111.7600     0.6320
   -7.500     0.000  -0.415032   0.003589   0.008263   0.011852   0.000000   0.000000  -0.131993   0.000000   0.000000  111.7600     0.6075
   -7.000     0.000  -0.368082   0.002822   0.008010   0.010832   0.000000   0.000000  -0.125607  -0.000000  -0.000000  111.7600     0.5768
   -6.500     0.000  -0.321056   0.002146   0.007763   0.009909   0.000000   0.000000  -0.119181  -0.000000  -0.000000  111.7600     0.5372
   -6.000     0.000  -0.273962   0.001561   0.007541   0.009103   0.000000   0.000000  -0.112719   0.000000   0.000000  111.7600     0.4840
   -5.500     0.000  -0.226808   0.001069   0.007342   0.008412   0.000000   0.000000  -0.106222   0.000000   0.000000  111.7600     0.4089
   -5.000     0.000  -0.179604   0.000669   0.007157   0.007826   0.000000   0.000000  -0.099692   0.000000   0.000000  111.7600     0.2943
   -4.500     0.000  -0.132358   0.000362   0.006963   0.007325   0.000000   0.000000  -0.093129   0.000000   0.000000  111.7600     0.0981
   -4.000     0.000  -0.085077   0.000149   0.006738   0.006887  -0.000000   0.000000  -0.086536   0.000000  -0.000000  111.7600    -0.3161
   -3.500     0.000  -0.037771   0.000029   0.006496   0.006525  -0.000000   0.000000  -0.079915   0.000000   0.000000  111.7600    -1.7677
   -3.250     0.000  -0.014111   0.000005   0.006375   0.006380  -0.000000   0.000000  -0.076594   0.000000  -0.000000  111.7600    -6.1443
   -3.150     0.000  -0.004646   0.000002   0.006328   0.006329  -0.000000   0.000000  -0.075264   0.000000  -0.000000  111.7600   -20.3769
   -3.100     0.000   0.000086   0.000001   0.006304   0.006306  -0.000000   0.000000  -0.074599   0.000000   0.000000  111.7600  1143.0119
   -3.000     0.000   0.009552   0.000004   0.006257   0.006261  -0.000000   0.000000  -0.073268   0.000000   0.000000  111.7600    11.1641
   -2.500     0.000   0.056883   0.000072   0.006020   0.006093  -0.000000   0.000000  -0.066597   0.000000   0.000000  111.7600     2.5755
   -2.000     0.000   0.104214   0.000235   0.005771   0.006006  -0.000000   0.000000  -0.059904   0.000000  -0.000000  111.7600     1.7882
   -1.500     0.000   0.151537   0.000491   0.005484   0.005975  -0.000000   0.000000  -0.053191   0.000000   0.000000  111.7600     1.4926
   -1.000     0.000   0.198842   0.000842   0.005110   0.005952  -0.000000   0.000000  -0.046458   0.000000   0.000000  111.7600     1.3378
   -0.500     0.000   0.246121   0.001287   0.004688   0.005975  -0.000000   0.000000  -0.039708   0.000000   0.000000  111.7600     1.2425
    0.000     0.000   0.293367   0.001825   0.004370   0.006196  -0.000000   0.000000  -0.032948   0.000000   0.000000  111.7600     1.1780
    0.500     0.000   0.340569   0.002457   0.004119   0.006576  -0.000000   0.000000  -0.026178   0.000000  -0.000000  111.7600     1.1314
    1.000     0.000   0.387720   0.003183   0.003953   0.007136  -0.000000   0.000000  -0.019401   0.000000   0.000000  111.7600     1.0963
    1.500     0.000   0.434812   0.004001   0.003828   0.007828  -0.000000   0.000000  -0.012618   0.000000   0.000000  111.7600     1.0688
    2.000     0.000   0.481835   0.004911   0.003770   0.008680  -0.000000   0.000000  -0.005832   0.000000   0.000000  111.7600     1.0468
    2.500     0.000   0.528782   0.005913   0.003747   0.009660  -0.000000   0.000000   0.000957  -0.000000  -0.000000  111.7600     1.0288
    3.000     0.000   0.575643   0.007006   0.003769   0.010775   0.000000   0.000000   0.007747  -0.000000  -0.000000  111.7600     1.0138
    3.500     0.000   0.622412   0.008189   0.003812   0.012000   0.000000   0.000000   0.014537  -0.000000  -0.000000  111.7600     1.0011
    4.000     0.000   0.669078   0.009462   0.003858   0.013320   0.000000   0.000000   0.021324   0.000000   0.000000  111.7600     0.9903
    4.500     0.000   0.715635   0.010823   0.003922   0.014745   0.000000   0.000000   0.028106  -0.000000  -0.000000  111.7600     0.9810
    5.000     0.000   0.762074   0.012273   0.004043   0.016315   0.000000   0.000000   0.034881  -0.000000  -0.000000  111.7600     0.9729
    5.500     0.000   0.808387   0.013809   0.004329   0.018138   0.000000   0.000000   0.041647   0.000000   0.000000  111.7600     0.9658
    6.000     0.000   0.854565   0.015431   0.004809   0.020240   0.000000   0.000000   0.048401   0.000000   0.000000  111.7600     0.9595
    6.250     0.000   0.877601   0.016274   0.005083   0.021357   0.000000   0.000000   0.051773   0.000000   0.000000  111.7600     0.9567
    6.400     0.000   0.891406   0.016790   0.005256   0.022046   0.000000   0.000000   0.053794  -0.000000  -0.000000  111.7600     0.9551
    6.470     0.000   0.897843   0.017033   0.005339   0.022372   0.000000   0.000000   0.054737  -0.000000  -0.000000  111.7600     0.9543
    6.474     0.000   0.898211   0.017047   0.005344   0.022390   0.000000   0.000000   0.054791   0.000000   0.000000  111.7600     0.9543
    6.480     0.000   0.898762   0.017068   0.005351   0.022419   0.000000   0.000000   0.054871   0.000000   0.000000  111.7600     0.9542
    6.500     0.000   0.900601   0.017138   0.005374   0.022512   0.000000   0.000000   0.055141  -0.000000   0.000000  111.7600     0.9540
    7.000     0.000   0.946486   0.018928   0.005976   0.024904   0.000000   0.000000   0.061866  -0.000000  -0.000000  111.7600     0.9491
    7.500     0.000   0.992214   0.020801   0.006613   0.027414   0.000000   0.000000   0.068575  -0.000000   0.000000  111.7600     0.9447
    8.000     0.000   1.037775   0.022755   0.007291   0.030045   0.000000   0.000000   0.075264   0.000000   0.000000  111.7600     0.9408
    8.500     0.000   1.083162   0.024788   0.008236   0.033024   0.000000   0.000000   0.081927   0.000000   0.000000  111.7600     0.9373
    9.000     0.000   1.128368   0.026900   0.010014   0.036914   0.000000   0.000000   0.088546   0.000000   0.000000  111.7600     0.9342
    9.500     0.000   1.173384   0.029088   0.012876   0.041964   0.000000   0.000000   0.095120   0.000000  -0.000000  111.7600     0.9314
   10.000     0.000   1.218204   0.031351   0.016200   0.047551   0.000000   0.000000   0.101680  -0.000000   0.000000  111.7600     0.9289
   10.500     0.000   1.262820   0.033688   0.020105   0.053793   0.000000   0.000000   0.108218  -0.000000   0.000000  111.7600     0.9266
   11.000     0.000   1.307225   0.036098   0.024036   0.060134   0.000000   0.000000   0.114753  -0.000000  -0.000000  111.7600     0.9246
   11.500     0.000   1.351410   0.038577   0.027765   0.066341   0.000000   0.000000   0.121295  -0.000000  -0.000000  111.7600     0.9228
   12.000     0.000   1.395370   0.041125   0.031866   0.072991   0.000000   0.000000   0.127808  -0.000000   0.000000  111.7600     0.9212


