xflr5 v6.12

Wing name :        Q1flaps30
Wing polar name :  T1-210.0 mph-LLT
Freestream speed : 210.000 mph


   alpha      Beta       CL          CDi        CDv        CD         CY         Cl         Cm         Cn        Cni       QInf        XCP
  -16.500     0.000  -0.563660   0.022471   0.019372   0.041843   0.000000  -0.000000  -0.206908   0.000000   0.000000   93.8784     0.3738
  -16.250     0.000  -0.546771   0.022545   0.018676   0.041221   0.000000  -0.000000  -0.203876  -0.000000   0.000000   93.8784     0.4015
  -16.000     0.000  -0.529438   0.022593   0.018055   0.040648   0.000000  -0.000000  -0.200748  -0.000000  -0.000000   93.8784     0.5978
  -15.750     0.000  -0.512349   0.022618   0.017516   0.040134   0.000000  -0.000000  -0.197485   0.000000   0.000000   93.8784     0.7549
  -15.500     0.000  -0.494882   0.022639   0.017037   0.039676   0.000000  -0.000000  -0.194100   0.000000   0.000000   93.8784     0.9650
  -15.250     0.000  -0.477736   0.022647   0.016560   0.039207   0.000000  -0.000000  -0.190851   0.000000  -0.000000   93.8784     0.7010
  -15.000     0.000  -0.459629   0.022681   0.016127   0.038807   0.000000  -0.000000  -0.187423   0.000000   0.000000   93.8784     0.6887
  -14.750     0.000  -0.441536   0.022744   0.015691   0.038435   0.000000  -0.000000  -0.184025   0.000000   0.000000   93.8784     1.0908
  -14.500     0.000  -0.423506   0.022817   0.015304   0.038120   0.000000  -0.000000  -0.180430  -0.000000  -0.000000   93.8784     1.1433
  -14.250     0.000  -0.405555   0.022885   0.014942   0.037827   0.000000  -0.000000  -0.176800  -0.000000  -0.000000   93.8784     0.8696
  -14.000     0.000  -0.387579   0.022936   0.014616   0.037551   0.000000  -0.000000  -0.173148  -0.000000  -0.000000   93.8784     0.5068
  -13.750     0.000  -0.368921   0.022906   0.014340   0.037246   0.000000  -0.000000  -0.169514   0.000000  -0.000000   93.8784     0.4491
  -13.500     0.000  -0.350065   0.022887   0.014074   0.036961   0.000000  -0.000000  -0.165883   0.000000   0.000000   93.8784     0.4018
  -13.250     0.000  -0.331084   0.022881   0.013818   0.036699   0.000000  -0.000000  -0.162227   0.000000   0.000000   93.8784     0.3463
  -13.000     0.000  -0.311870   0.022882   0.013573   0.036454   0.000000  -0.000000  -0.158574   0.000000   0.000000   93.8784     0.2965
  -12.750     0.000  -0.291869   0.022856   0.013358   0.036214   0.000000  -0.000000  -0.154953   0.000000   0.000000   93.8784     0.2435
  -12.500     0.000  -0.271769   0.022849   0.013149   0.035998   0.000000  -0.000000  -0.151315   0.000000   0.000000   93.8784     0.1906
  -12.250     0.000  -0.251548   0.022858   0.012951   0.035809   0.000000  -0.000000  -0.147657   0.000000   0.000000   93.8784     0.1399
  -12.000     0.000  -0.231236   0.022893   0.012755   0.035648   0.000000  -0.000000  -0.143978   0.000000   0.000000   93.8784     0.0864
  -11.750     0.000  -0.210893   0.022896   0.012596   0.035493   0.000000  -0.000000  -0.140259   0.000000   0.000000   93.8784     0.0601
  -11.500     0.000  -0.190909   0.022880   0.012480   0.035360   0.000000  -0.000000  -0.136457   0.000000   0.000000   93.8784    -0.0098
  -11.250     0.000  -0.170656   0.022872   0.012366   0.035237   0.000000  -0.000000  -0.132667   0.000000   0.000000   93.8784    -0.0988
  -11.000     0.000  -0.193015   0.019802   0.014922   0.034723   0.000000  -0.000000  -0.130344   0.000000  -0.000000   93.8784    -0.3104
  -10.750     0.000  -0.172580   0.019739   0.014860   0.034599   0.000000  -0.000000  -0.126628   0.000000  -0.000000   93.8784    -0.3612
  -10.500     0.000  -0.150750   0.019666   0.014804   0.034470   0.000000  -0.000000  -0.123085   0.000000  -0.000000   93.8784    -0.4340
  -10.250     0.000  -0.127869   0.019649   0.014708   0.034357   0.000000  -0.000000  -0.119569   0.000000  -0.000000   93.8784    -0.6263
  -10.000     0.000  -0.104342   0.019657   0.014610   0.034267   0.000000  -0.000000  -0.116103   0.000000  -0.000000   93.8784    -0.8878
   -9.750     0.000  -0.079731   0.019755   0.014473   0.034228   0.000000  -0.000000  -0.112625   0.000000  -0.000000   93.8784    -1.3880
   -9.500     0.000  -0.054560   0.019899   0.014324   0.034223   0.000000  -0.000000  -0.109166   0.000000  -0.000000   93.8784    -2.3524
   -9.250     0.000  -0.029093   0.020095   0.014160   0.034255   0.000000  -0.000000  -0.105691   0.000000  -0.000000   93.8784    -5.5311
   -9.000     0.000  -0.003095   0.020344   0.014007   0.034351   0.000000  -0.000000  -0.102261   0.000000  -0.000000   93.8784   -57.0639
   -8.750     0.000   0.023881   0.020704   0.013816   0.034520   0.000000  -0.000000  -0.098782   0.000000  -0.000000   93.8784     7.2270
   -8.500     0.000   0.051006   0.021103   0.013623   0.034726   0.000000  -0.000000  -0.095298   0.000000  -0.000000   93.8784     3.8737
   -8.250     0.000   0.077032   0.021449   0.013471   0.034921   0.000000  -0.000000  -0.091823   0.000000  -0.000000   93.8784     3.0568
   -8.000     0.000   0.104567   0.021961   0.013279   0.035241   0.000000  -0.000000  -0.088296   0.000000  -0.000000   93.8784     2.4693
   -7.750     0.000   0.132165   0.022518   0.013080   0.035597   0.000000  -0.000000  -0.084758   0.000000  -0.000000   93.8784     2.1089
   -7.500     0.000   0.107677   0.019444   0.015565   0.035009   0.000000  -0.000000  -0.082089   0.000000   0.000000   93.8784     2.1410
   -7.250     0.000   0.133906   0.019918   0.015410   0.035328   0.000000  -0.000000  -0.078528   0.000000   0.000000   93.8784     1.8896
   -7.000     0.000   0.160172   0.020426   0.015254   0.035680   0.000000  -0.000000  -0.074974   0.000000   0.000000   93.8784     1.7159
   -6.750     0.000   0.186983   0.021022   0.015090   0.036112   0.000000  -0.000000  -0.071432   0.000000   0.000000   93.8784     1.6056
   -6.500     0.000   0.096011   0.011534   0.021875   0.033410   0.000000  -0.000000  -0.076125   0.000000   0.000000   93.8784     2.1710
   -6.250     0.000   0.118802   0.011622   0.021883   0.033506   0.000000  -0.000000  -0.072741   0.000000   0.000000   93.8784     1.9749
   -6.000     0.000   0.141639   0.011732   0.021891   0.033623   0.000000  -0.000000  -0.069369   0.000000   0.000000   93.8784     1.7680
   -5.750     0.000   0.164486   0.011863   0.021899   0.033762   0.000000  -0.000000  -0.066001   0.000000   0.000000   93.8784     1.5226
   -5.500     0.000   0.187322   0.012014   0.021910   0.033924   0.000000  -0.000000  -0.062638   0.000000   0.000000   93.8784     1.4187
   -5.250     0.000   0.210091   0.012186   0.021921   0.034107   0.000000  -0.000000  -0.059279   0.000000   0.000000   93.8784     1.4311
   -5.000     0.000   0.232785   0.012380   0.021926   0.034306   0.000000  -0.000000  -0.055911   0.000000   0.000000   93.8784     1.3955
   -4.750     0.000   0.255378   0.012594   0.021929   0.034523   0.000000  -0.000000  -0.052536   0.000000   0.000000   93.8784     1.3399
   -4.500     0.000   0.277965   0.012830   0.021930   0.034760   0.000000  -0.000000  -0.049172   0.000000   0.000000   93.8784     1.2764
   -4.250     0.000   0.300579   0.013084   0.021935   0.035019   0.000000  -0.000000  -0.045814   0.000000   0.000000   93.8784     1.2222
   -4.000     0.000   0.323278   0.013359   0.021943   0.035302   0.000000  -0.000000  -0.042458   0.000000   0.000000   93.8784     1.1914
   -3.750     0.000   0.346038   0.013656   0.021951   0.035606   0.000000  -0.000000  -0.039109   0.000000   0.000000   93.8784     1.1574
   -3.500     0.000   0.368751   0.013978   0.021949   0.035926   0.000000  -0.000000  -0.035759   0.000000   0.000000   93.8784     1.1531
   -3.250     0.000   0.391412   0.014326   0.021932   0.036257   0.000000  -0.000000  -0.032408   0.000000   0.000000   93.8784     1.1474
   -3.000     0.000   0.414128   0.014695   0.021916   0.036611   0.000000  -0.000000  -0.029058   0.000000   0.000000   93.8784     1.1290
   -2.750     0.000   0.436937   0.015085   0.021905   0.036990   0.000000  -0.000000  -0.025710   0.000000   0.000000   93.8784     1.1126
   -2.500     0.000   0.459712   0.015497   0.021888   0.037385   0.000000  -0.000000  -0.022352   0.000000   0.000000   93.8784     1.0967
   -2.250     0.000   0.482396   0.015935   0.021859   0.037794   0.000000  -0.000000  -0.018983   0.000000   0.000000   93.8784     1.0822
   -2.000     0.000   0.505031   0.016398   0.021817   0.038215   0.000000  -0.000000  -0.015597   0.000000   0.000000   93.8784     1.0699
   -1.750     0.000   0.527711   0.016883   0.021773   0.038656   0.000000  -0.000000  -0.012206   0.000000   0.000000   93.8784     1.0589
   -1.500     0.000   0.550558   0.017390   0.021736   0.039126   0.000000  -0.000000  -0.008822   0.000000   0.000000   93.8784     1.0490
   -1.250     0.000   0.573646   0.017917   0.021717   0.039634   0.000000  -0.000000  -0.005455   0.000000   0.000000   93.8784     1.0397
   -1.000     0.000   0.596887   0.018468   0.021708   0.040176   0.000000  -0.000000  -0.002101   0.000000   0.000000   93.8784     1.0312
   -0.750     0.000   0.620227   0.019041   0.021714   0.040755   0.000000  -0.000000   0.001232   0.000000   0.000000   93.8784     1.0231
   -0.500     0.000   0.643967   0.019635   0.021755   0.041389   0.000000  -0.000000   0.004508   0.000000   0.000000   93.8784     1.0161
   -0.250     0.000   0.667850   0.020253   0.021809   0.042062   0.000000  -0.000000   0.007756   0.000000   0.000000   93.8784     1.0095
    0.000     0.000   0.691799   0.020896   0.021874   0.042770   0.000000  -0.000000   0.010989   0.000000   0.000000   93.8784     1.0034
    0.250     0.000   0.715802   0.021563   0.021943   0.043507   0.000000  -0.000000   0.014213   0.000000   0.000000   93.8784     0.9978
    0.500     0.000   0.739759   0.022255   0.022016   0.044272   0.000000  -0.000000   0.017434   0.000000   0.000000   93.8784     0.9924
    0.750     0.000   0.763524   0.022958   0.022101   0.045058   0.000000  -0.000000   0.020641   0.000000   0.000000   93.8784     0.9874
    1.000     0.000   0.787045   0.023666   0.022200   0.045866   0.000000  -0.000000   0.023838   0.000000   0.000000   93.8784     0.9826
    1.250     0.000   0.810068   0.024390   0.022327   0.046716   0.000000  -0.000000   0.027022   0.000000   0.000000   93.8784     0.9781
    1.500     0.000   0.833149   0.025140   0.022452   0.047592   0.000000  -0.000000   0.030199   0.000000   0.000000   93.8784     0.9739
    1.750     0.000   0.856466   0.025925   0.022565   0.048490   0.000000  -0.000000   0.033382   0.000000   0.000000   93.8784     0.9699
    2.000     0.000   0.880030   0.026749   0.022663   0.049412   0.000000  -0.000000   0.036570   0.000000   0.000000   93.8784     0.9661
    2.250     0.000   0.903311   0.027599   0.022774   0.050372   0.000000  -0.000000   0.039773   0.000000   0.000000   93.8784     0.9624
    2.500     0.000   0.926043   0.028460   0.022909   0.051368   0.000000  -0.000000   0.042982   0.000000   0.000000   93.8784     0.9589
    2.750     0.000   0.948574   0.029337   0.023050   0.052387   0.000000  -0.000000   0.046197   0.000000   0.000000   93.8784     0.9554
    3.000     0.000   0.970670   0.030210   0.023205   0.053415   0.000000  -0.000000   0.049402   0.000000   0.000000   93.8784     0.9521
    3.250     0.000   0.992547   0.031097   0.023367   0.054464   0.000000  -0.000000   0.052612   0.000000   0.000000   93.8784     0.9489
    3.500     0.000   1.013529   0.031956   0.023568   0.055524   0.000000  -0.000000   0.055809   0.000000   0.000000   93.8784     0.9458
    3.750     0.000   1.033844   0.032768   0.023804   0.056572   0.000000  -0.000000   0.058957   0.000000   0.000000   93.8784     0.9427
    4.000     0.000   1.053553   0.033550   0.024069   0.057619   0.000000  -0.000000   0.062076   0.000000   0.000000   93.8784     0.9398
    4.250     0.000   1.072884   0.034326   0.024348   0.058674   0.000000  -0.000000   0.065180   0.000000   0.000000   93.8784     0.9369
    4.500     0.000   1.091779   0.035146   0.024632   0.059778   0.000000  -0.000000   0.068379   0.000000   0.000000   93.8784     0.9340
    4.750     0.000   1.110511   0.035997   0.024931   0.060928   0.000000  -0.000000   0.071637   0.000000   0.000000   93.8784     0.9311
    5.000     0.000   1.128904   0.036855   0.025244   0.062100   0.000000  -0.000000   0.074943   0.000000   0.000000   93.8784     0.9282
    5.250     0.000   1.147064   0.037720   0.025573   0.063293   0.000000  -0.000000   0.078279   0.000000   0.000000   93.8784     0.9252
    5.500     0.000   1.164764   0.038593   0.025899   0.064493   0.000000  -0.000000   0.081629   0.000000   0.000000   93.8784     0.9223
    5.750     0.000   1.182160   0.039480   0.026235   0.065715   0.000000  -0.000000   0.085038   0.000000   0.000000   93.8784     0.9194
    6.000     0.000   1.198221   0.040372   0.026562   0.066934   0.000000  -0.000000   0.088563   0.000000   0.000000   93.8784     0.9163
    6.250     0.000   1.213350   0.041263   0.026899   0.068161   0.000000  -0.000000   0.092200   0.000000   0.000000   93.8784     0.9130
    6.500     0.000   1.228239   0.042156   0.027252   0.069408   0.000000  -0.000000   0.095828   0.000000   0.000000   93.8784     0.9098
    6.750     0.000   1.242946   0.043053   0.027612   0.070665   0.000000  -0.000000   0.099450   0.000000   0.000000   93.8784     0.9067
    7.000     0.000   1.257321   0.043953   0.027988   0.071941   0.000000  -0.000000   0.103024   0.000000   0.000000   93.8784     0.9036
    7.250     0.000   1.270341   0.044842   0.028387   0.073229   0.000000  -0.000000   0.106720   0.000000   0.000000   93.8784     0.9003
    7.500     0.000   1.281291   0.045690   0.028843   0.074533   0.000000  -0.000000   0.110557   0.000000   0.000000   93.8784     0.8968
    7.750     0.000   1.292848   0.046538   0.029295   0.075833   0.000000  -0.000000   0.114348   0.000000   0.000000   93.8784     0.8933
    8.000     0.000   1.304928   0.047384   0.029753   0.077137   0.000000  -0.000000   0.118139   0.000000   0.000000   93.8784     0.8900
    8.250     0.000   1.316533   0.048230   0.030244   0.078474   0.000000  -0.000000   0.121902   0.000000   0.000000   93.8784     0.8867
    8.500     0.000   1.327128   0.049062   0.030779   0.079841   0.000000  -0.000000   0.125559   0.000000   0.000000   93.8784     0.8835
    8.750     0.000   1.337569   0.049910   0.031335   0.081244   0.000000  -0.000000   0.129196   0.000000   0.000000   93.8784     0.8802
    9.000     0.000   1.347499   0.050749   0.031918   0.082666   0.000000  -0.000000   0.132941   0.000000   0.000000   93.8784     0.8769
    9.250     0.000   1.357103   0.051553   0.032553   0.084106   0.000000  -0.000000   0.136622   0.000000   0.000000   93.8784     0.8736
    9.500     0.000   1.366274   0.052357   0.033230   0.085587   0.000000  -0.000000   0.140261   0.000000   0.000000   93.8784     0.8703
    9.750     0.000   1.373980   0.053031   0.034092   0.087123   0.000000  -0.000000   0.143691   0.000000   0.000000   93.8784     0.8671
   10.000     0.000   1.381640   0.053659   0.035007   0.088667   0.000000  -0.000000   0.146976   0.000000   0.000000   93.8784     0.8641
   10.250     0.000   1.390600   0.054332   0.035872   0.090204   0.000000  -0.000000   0.150239   0.000000   0.000000   93.8784     0.8612
   10.500     0.000   1.398872   0.054916   0.036838   0.091754   0.000000  -0.000000   0.153445   0.000000   0.000000   93.8784     0.8583
   10.750     0.000   1.406923   0.055513   0.037828   0.093341   0.000000  -0.000000   0.156545   0.000000   0.000000   93.8784     0.8555
   11.000     0.000   1.414890   0.056086   0.038868   0.094954   0.000000  -0.000000   0.159469   0.000000   0.000000   93.8784     0.8528
   11.250     0.000   1.422891   0.056584   0.039974   0.096558   0.000000  -0.000000   0.162281   0.000000   0.000000   93.8784     0.8503
   11.500     0.000   1.431322   0.057138   0.041051   0.098190   0.000000  -0.000000   0.165152   0.000000   0.000000   93.8784     0.8478
   11.750     0.000   1.439601   0.057788   0.042108   0.099896   0.000000  -0.000000   0.168063   0.000000   0.000000   93.8784     0.8453
   12.000     0.000   1.447447   0.058397   0.043219   0.101616   0.000000  -0.000000   0.170947   0.000000   0.000000   93.8784     0.8427
   12.250     0.000   1.455054   0.058836   0.044444   0.103280   0.000000  -0.000000   0.173587   0.000000   0.000000   93.8784     0.8403
   12.500     0.000   1.463096   0.059329   0.045636   0.104965   0.000000  -0.000000   0.176099   0.000000   0.000000   93.8784     0.8382
   12.750     0.000   1.471260   0.059896   0.046804   0.106700   0.000000  -0.000000   0.178585   0.000000   0.000000   93.8784     0.8360
   13.000     0.000   1.479103   0.060444   0.048008   0.108452   0.000000  -0.000000   0.181144   0.000000   0.000000   93.8784     0.8338
   13.250     0.000   1.487740   0.061035   0.049130   0.110165   0.000000  -0.000000   0.183759   0.000000   0.000000   93.8784     0.8316
   13.500     0.000   1.496542   0.061652   0.050245   0.111897   0.000000  -0.000000   0.186271   0.000000   0.000000   93.8784     0.8295
   13.750     0.000   1.503099   0.062014   0.051673   0.113686   0.000000  -0.000000   0.188271   0.000000   0.000000   93.8784     0.8276
   14.000     0.000   1.508915   0.062303   0.053209   0.115512   0.000000  -0.000000   0.190118   0.000000   0.000000   93.8784     0.8258
   14.250     0.000   1.516823   0.062826   0.054474   0.117300   0.000000  -0.000000   0.192212   0.000000   0.000000   93.8784     0.8240
   14.500     0.000   1.525432   0.063390   0.055670   0.119059   0.000000  -0.000000   0.194323   0.000000   0.000000   93.8784     0.8223
   14.750     0.000   1.531977   0.063668   0.057224   0.120893   0.000000  -0.000000   0.195831   0.000000   0.000000   93.8784     0.8208
   15.000     0.000   1.538525   0.063865   0.058952   0.122817   0.000000  -0.000000   0.197073   0.000000   0.000000   93.8784     0.8195
   15.250     0.000   1.547291   0.064291   0.060422   0.124713   0.000000  -0.000000   0.198675   0.000000   0.000000   93.8784     0.8182
   15.500     0.000   1.556902   0.064750   0.061868   0.126618   0.000000  -0.000000   0.200145   0.000000   0.000000   93.8784     0.8171
   15.750     0.000   1.566518   0.065059   0.063505   0.128564   0.000000  -0.000000   0.201018   0.000000   0.000000   93.8784     0.8165
   16.000     0.000   1.578520   0.065446   0.065181   0.130627   0.000000  -0.000000   0.201337   0.000000   0.000000   93.8784     0.8166
   16.250     0.000   1.593084   0.066042   0.066712   0.132754   0.000000  -0.000000   0.201649   0.000000   0.000000   93.8784     0.8170
   16.500     0.000   1.608721   0.066726   0.068259   0.134985   0.000000  -0.000000   0.201838   0.000000   0.000000   93.8784     0.8176
   16.750     0.000   1.621958   0.067411   0.069825   0.137236   0.000000  -0.000000   0.202453   0.000000   0.000000   93.8784     0.8175
   17.000     0.000   1.632597   0.067850   0.071670   0.139520   0.000000  -0.000000   0.202702   0.000000   0.000000   93.8784     0.8175
   17.250     0.000   1.637894   0.068109   0.073406   0.141515   0.000000  -0.000000   0.203759   0.000000   0.000000   93.8784     0.8162
   17.500     0.000   1.645943   0.068553   0.075003   0.143556   0.000000  -0.000000   0.205043   0.000000   0.000000   93.8784     0.8150
   17.750     0.000   1.656499   0.069161   0.076588   0.145749   0.000000  -0.000000   0.205905   0.000000   0.000000   93.8784     0.8143
   18.000     0.000   1.666283   0.069767   0.078261   0.148027   0.000000  -0.000000   0.206546   0.000000   0.000000   93.8784     0.8138
   18.250     0.000   1.673625   0.070264   0.080024   0.150288   0.000000  -0.000000   0.207266   0.000000  -0.000000   93.8784     0.8130
   18.500     0.000   1.680061   0.070602   0.081833   0.152435   0.000000  -0.000000   0.207842   0.000000  -0.000000   93.8784     0.8121
   18.750     0.000   1.687064   0.071042   0.083436   0.154477   0.000000  -0.000000   0.208806   0.000000   0.000000   93.8784     0.8110
   19.000     0.000   1.694777   0.071616   0.084912   0.156528   0.000000  -0.000000   0.210127   0.000000   0.000000   93.8784     0.8097
   19.250     0.000   1.701530   0.072155   0.086500   0.158654   0.000000  -0.000000   0.211369   0.000000   0.000000   93.8784     0.8083
   19.500     0.000   1.707057   0.072621   0.088254   0.160876   0.000000  -0.000000   0.212259   0.000000  -0.000000   93.8784     0.8071
   19.750     0.000   1.711799   0.072961   0.090119   0.163080   0.000000  -0.000000   0.212814   0.000000  -0.000000   93.8784     0.8061
   20.000     0.000   1.716087   0.073192   0.092037   0.165229   0.000000  -0.000000   0.213256   0.000000   0.000000   93.8784     0.8050
   20.250     0.000   1.721436   0.073614   0.093773   0.167387   0.000000  -0.000000   0.214075   0.000000   0.000000   93.8784     0.8038
   20.500     0.000   1.726401   0.074088   0.095545   0.169633   0.000000  -0.000000   0.214972   0.000000   0.000000   93.8784     0.8025
   20.750     0.000   1.729672   0.074343   0.097537   0.171880   0.000000  -0.000000   0.215395   0.000000   0.000000   93.8784     0.8013
   21.000     0.000   1.732154   0.074493   0.099596   0.174089   0.000000  -0.000000   0.215630   0.000000   0.000000   93.8784     0.8002
   21.250     0.000   1.734851   0.074737   0.101590   0.176327   0.000000  -0.000000   0.216055   0.000000   0.000000   93.8784     0.7990
   21.500     0.000   1.737490   0.074993   0.103594   0.178586   0.000000  -0.000000   0.216491   0.000000   0.000000   93.8784     0.7978
   21.750     0.000   1.739283   0.075160   0.105691   0.180852   0.000000  -0.000000   0.216521   0.000000   0.000000   93.8784     0.7967
   22.000     0.000   1.740165   0.075340   0.107914   0.183254   0.000000  -0.000000   0.216517   0.000000   0.000000   93.8784     0.7956
   22.250     0.000   1.740195   0.075419   0.110239   0.185658   0.000000  -0.000000   0.216363   0.000000   0.000000   93.8784     0.7945
   22.500     0.000   1.739187   0.075387   0.112698   0.188084   0.000000  -0.000000   0.215863   0.000000   0.000000   93.8784     0.7936
   22.750     0.000   1.738262   0.075381   0.115119   0.190500   0.000000  -0.000000   0.215359   0.000000   0.000000   93.8784     0.7926
   23.000     0.000   1.737022   0.075362   0.117593   0.192955   0.000000  -0.000000   0.214822   0.000000   0.000000   93.8784     0.7916
   23.250     0.000   1.734044   0.075400   0.120240   0.195639   0.000000  -0.000000   0.214054   0.000000   0.000000   93.8784     0.7907
   23.500     0.000   1.726081   0.075643   0.123125   0.198767   0.000000  -0.000000   0.213169   0.000000   0.000000   93.8784     0.7894
   23.750     0.000   1.723147   0.075743   0.125924   0.201667   0.000000  -0.000000   0.212172   0.000000   0.000000   93.8784     0.7886
   24.000     0.000   1.719562   0.075753   0.128813   0.204565   0.000000  -0.000000   0.211097   0.000000   0.000000   93.8784     0.7878
   24.250     0.000   1.714186   0.075677   0.131874   0.207552   0.000000  -0.000000   0.209815   0.000000   0.000000   93.8784     0.7869
   24.500     0.000   1.707682   0.075592   0.135131   0.210723   0.000000  -0.000000   0.208173   0.000000   0.000000   93.8784     0.7863
   24.750     0.000   1.701230   0.075536   0.138500   0.214037   0.000000  -0.000000   0.206190   0.000000   0.000000   93.8784     0.7859
   25.000     0.000   1.694920   0.075532   0.141979   0.217511   0.000000  -0.000000   0.203909   0.000000   0.000000   93.8784     0.7857
   25.250     0.000   1.691475   0.075412   0.144909   0.220321   0.000000  -0.000000   0.202291   0.000000   0.000000   93.8784     0.7853
   25.500     0.000   1.688173   0.075306   0.147795   0.223101   0.000000  -0.000000   0.200728   0.000000   0.000000   93.8784     0.7848
   25.750     0.000   1.682491   0.075193   0.151044   0.226237   0.000000  -0.000000   0.198504   0.000000   0.000000   93.8784     0.7846
   26.000     0.000   1.674611   0.075042   0.154676   0.229718   0.000000  -0.000000   0.195604   0.000000   0.000000   93.8784     0.7848
   26.250     0.000   1.662184   0.075133   0.158812   0.233946   0.000000  -0.000000   0.191165   0.000000   0.000000   93.8784     0.7862
   26.500     0.000   1.653839   0.075279   0.162913   0.238191   0.000000  -0.000000   0.187757   0.000000   0.000000   93.8784     0.7868


