xflr5 v6.12

Wing name :        Q1noflaps
Wing polar name :  T1-210.0 mph-LLT
Freestream speed : 210.000 mph


   alpha      Beta       CL          CDi        CDv        CD         CY         Cl         Cm         Cn        Cni       QInf        XCP
  -19.000     0.000  -0.852454   0.016888   0.049461   0.066350   0.000000   0.000000  -0.241413  -0.000000   0.000000   93.8784     0.6068
  -18.750     0.000  -0.861110   0.016959   0.045936   0.062895   0.000000   0.000000  -0.243383  -0.000000   0.000000   93.8784     0.6083
  -18.500     0.000  -0.868826   0.017072   0.042645   0.059717   0.000000   0.000000  -0.245198  -0.000000   0.000000   93.8784     0.6098
  -18.250     0.000  -0.875337   0.017221   0.039635   0.056856   0.000000   0.000000  -0.246670  -0.000000   0.000000   93.8784     0.6115
  -18.000     0.000  -0.880887   0.017411   0.036822   0.054233   0.000000   0.000000  -0.248006  -0.000000   0.000000   93.8784     0.6130
  -17.750     0.000  -0.885511   0.017647   0.034155   0.051802   0.000000   0.000000  -0.249133  -0.000000   0.000000   93.8784     0.6147
  -17.500     0.000  -0.889106   0.017931   0.031639   0.049570   0.000000   0.000000  -0.250189  -0.000000   0.000000   93.8784     0.6163
  -17.250     0.000  -0.891989   0.018273   0.029230   0.047503   0.000000   0.000000  -0.251137  -0.000000   0.000000   93.8784     0.6178
  -17.000     0.000  -0.890237   0.018219   0.027700   0.045919   0.000000   0.000000  -0.249841  -0.000000   0.000000   93.8784     0.6201
  -16.750     0.000  -0.887007   0.018043   0.026433   0.044475   0.000000   0.000000  -0.247891  -0.000000   0.000000   93.8784     0.6226
  -16.500     0.000  -0.883189   0.017846   0.025231   0.043076   0.000000   0.000000  -0.245881  -0.000000   0.000000   93.8784     0.6248
  -16.250     0.000  -0.878785   0.017617   0.024071   0.041689   0.000000   0.000000  -0.243750  -0.000000   0.000000   93.8784     0.6270
  -16.000     0.000  -0.873685   0.017371   0.022983   0.040354   0.000000   0.000000  -0.241545  -0.000000   0.000000   93.8784     0.6291
  -15.750     0.000  -0.868361   0.017122   0.021916   0.039038   0.000000   0.000000  -0.239320  -0.000000   0.000000   93.8784     0.6310
  -15.500     0.000  -0.862371   0.016852   0.020898   0.037749   0.000000   0.000000  -0.237071  -0.000000   0.000000   93.8784     0.6327
  -15.250     0.000  -0.856217   0.016582   0.019893   0.036475   0.000000   0.000000  -0.234818  -0.000000   0.000000   93.8784     0.6343
  -15.000     0.000  -0.849456   0.016302   0.018923   0.035225   0.000000   0.000000  -0.232565  -0.000000   0.000000   93.8784     0.6357
  -14.750     0.000  -0.842435   0.016017   0.017965   0.033982   0.000000   0.000000  -0.230316  -0.000000   0.000000   93.8784     0.6370
  -14.500     0.000  -0.835166   0.015732   0.017029   0.032761   0.000000   0.000000  -0.228054  -0.000000   0.000000   93.8784     0.6381
  -14.250     0.000  -0.827528   0.015439   0.016149   0.031588   0.000000   0.000000  -0.225622  -0.000000   0.000000   93.8784     0.6394
  -14.000     0.000  -0.818408   0.015087   0.015510   0.030597   0.000000   0.000000  -0.222373  -0.000000   0.000000   93.8784     0.6412
  -13.750     0.000  -0.808674   0.014714   0.014905   0.029619   0.000000   0.000000  -0.219062  -0.000000   0.000000   93.8784     0.6429
  -13.500     0.000  -0.797918   0.014303   0.014355   0.028657   0.000000   0.000000  -0.215653  -0.000000   0.000000   93.8784     0.6443
  -13.250     0.000  -0.786906   0.013891   0.013825   0.027715   0.000000   0.000000  -0.212213  -0.000000   0.000000   93.8784     0.6457
  -13.000     0.000  -0.775425   0.013467   0.013319   0.026786   0.000000   0.000000  -0.208726  -0.000000   0.000000   93.8784     0.6469
  -12.750     0.000  -0.763726   0.013048   0.012831   0.025878   0.000000   0.000000  -0.205227  -0.000000   0.000000   93.8784     0.6480
  -12.500     0.000  -0.751872   0.012631   0.012362   0.024993   0.000000   0.000000  -0.201684  -0.000000  -0.000000   93.8784     0.6491
  -12.250     0.000  -0.739440   0.012205   0.011937   0.024143   0.000000   0.000000  -0.198036  -0.000000  -0.000000   93.8784     0.6501
  -12.000     0.000  -0.725819   0.011744   0.011590   0.023333   0.000000   0.000000  -0.194138  -0.000000  -0.000000   93.8784     0.6511
  -11.750     0.000  -0.712047   0.011288   0.011265   0.022553   0.000000   0.000000  -0.190189  -0.000000   0.000000   93.8784     0.6520
  -11.500     0.000  -0.697816   0.010826   0.010960   0.021786   0.000000   0.000000  -0.186198   0.000000   0.000000   93.8784     0.6528
  -11.250     0.000  -0.683338   0.010360   0.010673   0.021032   0.000000   0.000000  -0.182121  -0.000000  -0.000000   93.8784     0.6537
  -11.000     0.000  -0.668587   0.009896   0.010402   0.020297   0.000000   0.000000  -0.178029  -0.000000  -0.000000   93.8784     0.6544
  -10.750     0.000  -0.653299   0.009423   0.010145   0.019568   0.000000  -0.000000  -0.173885  -0.000000  -0.000000   93.8784     0.6549
  -10.500     0.000  -0.636985   0.008935   0.009895   0.018830   0.000000  -0.000000  -0.169771  -0.000000  -0.000000   93.8784     0.6548
  -10.250     0.000  -0.619352   0.008431   0.009670   0.018101   0.000000  -0.000000  -0.165738  -0.000000  -0.000000   93.8784     0.6537
  -10.000     0.000  -0.601326   0.007933   0.009446   0.017379   0.000000  -0.000000  -0.161752  -0.000000  -0.000000   93.8784     0.6521
   -9.750     0.000  -0.582529   0.007435   0.009217   0.016652   0.000000   0.000000  -0.157916  -0.000000  -0.000000   93.8784     0.6495
   -9.500     0.000  -0.563421   0.006947   0.008988   0.015935   0.000000  -0.000000  -0.154114  -0.000000  -0.000000   93.8784     0.6465
   -9.250     0.000  -0.542782   0.006445   0.008817   0.015262   0.000000   0.000000  -0.150462   0.000000  -0.000000   93.8784     0.6418
   -9.000     0.000  -0.521398   0.005945   0.008678   0.014623   0.000000   0.000000  -0.146837  -0.000000  -0.000000   93.8784     0.6361
   -8.750     0.000  -0.499461   0.005454   0.008558   0.014013   0.000000   0.000000  -0.143240  -0.000000  -0.000000   93.8784     0.6292
   -8.500     0.000  -0.477337   0.004981   0.008443   0.013424   0.000000  -0.000000  -0.139644  -0.000000  -0.000000   93.8784     0.6217
   -8.250     0.000  -0.454980   0.004525   0.008332   0.012857   0.000000   0.000000  -0.136059  -0.000000  -0.000000   93.8784     0.6129
   -8.000     0.000  -0.432491   0.004088   0.008224   0.012312   0.000000   0.000000  -0.132480   0.000000  -0.000000   93.8784     0.6033
   -7.750     0.000  -0.409816   0.003671   0.008119   0.011790   0.000000  -0.000000  -0.128908   0.000000  -0.000000   93.8784     0.5921
   -7.500     0.000  -0.387022   0.003274   0.008016   0.011290   0.000000  -0.000000  -0.125341   0.000000  -0.000000   93.8784     0.5796
   -7.250     0.000  -0.364144   0.002898   0.007912   0.010810   0.000000   0.000000  -0.121766   0.000000  -0.000000   93.8784     0.5652
   -7.000     0.000  -0.341166   0.002543   0.007808   0.010352   0.000000   0.000000  -0.118193   0.000000  -0.000000   93.8784     0.5488
   -6.750     0.000  -0.318063   0.002210   0.007707   0.009918   0.000000   0.000000  -0.114624   0.000000  -0.000000   93.8784     0.5297
   -6.500     0.000  -0.294876   0.001899   0.007606   0.009505   0.000000   0.000000  -0.111057   0.000000  -0.000000   93.8784     0.5072
   -6.250     0.000  -0.271614   0.001611   0.007505   0.009116   0.000000   0.000000  -0.107489  -0.000000  -0.000000   93.8784     0.4812
   -6.000     0.000  -0.248205   0.001345   0.007407   0.008752   0.000000   0.000000  -0.103933   0.000000  -0.000000   93.8784     0.4487
   -5.750     0.000  -0.224751   0.001102   0.007309   0.008412   0.000000   0.000000  -0.100375   0.000000  -0.000000   93.8784     0.4110
   -5.500     0.000  -0.201133   0.000883   0.007214   0.008096   0.000000   0.000000  -0.096828   0.000000  -0.000000   93.8784     0.3592
   -5.250     0.000  -0.177480   0.000687   0.007119   0.007806   0.000000   0.000000  -0.093281   0.000000  -0.000000   93.8784     0.2979
   -5.000     0.000  -0.153758   0.000515   0.007020   0.007536   0.000000   0.000000  -0.089735   0.000000  -0.000000   93.8784     0.1738
   -4.750     0.000  -0.130015   0.000368   0.006921   0.007289   0.000000  -0.000000  -0.086189   0.000000  -0.000000   93.8784     0.0388
   -4.500     0.000  -0.106323   0.000246   0.006815   0.007062   0.000000   0.000000  -0.082632   0.000000  -0.000000   93.8784    -0.1502
   -4.250     0.000  -0.082671   0.000149   0.006705   0.006854   0.000000   0.000000  -0.079069   0.000000  -0.000000   93.8784    -0.3853
   -4.000     0.000  -0.059055   0.000076   0.006589   0.006665   0.000000  -0.000000  -0.075511   0.000000  -0.000000   93.8784    -1.3856
   -3.750     0.000  -0.035507   0.000027   0.006461   0.006489   0.000000  -0.000000  -0.071965  -0.000000  -0.000000   93.8784    -3.8114
   -3.500     0.000  -0.011945   0.000003   0.006334   0.006337   0.000000  -0.000000  -0.068419  -0.000000  -0.000000   93.8784    -5.6835
   -3.250     0.000   0.011829   0.000003   0.006213   0.006216   0.000000  -0.000000  -0.064900   0.000000   0.000000   93.8784    -2.5495
   -3.000     0.000   0.035602   0.000028   0.006092   0.006120   0.000000  -0.000000  -0.061378   0.000000  -0.000000   93.8784     1.2129
   -2.750     0.000   0.059394   0.000077   0.005965   0.006043   0.000000  -0.000000  -0.057860   0.000000  -0.000000   93.8784     1.9079
   -2.500     0.000   0.083195   0.000152   0.005839   0.005990   0.000000  -0.000000  -0.054341   0.000000  -0.000000   93.8784     1.8034
   -2.250     0.000   0.107020   0.000251   0.005707   0.005958   0.000000  -0.000000  -0.050831   0.000000  -0.000000   93.8784     1.7119
   -2.000     0.000   0.130831   0.000374   0.005571   0.005945   0.000000   0.000000  -0.047322   0.000000  -0.000000   93.8784     1.5546
   -1.750     0.000   0.154552   0.000522   0.005424   0.005946   0.000000   0.000000  -0.043809  -0.000000  -0.000000   93.8784     1.4218
   -1.500     0.000   0.178097   0.000693   0.005259   0.005952   0.000000  -0.000000  -0.040298   0.000000  -0.000000   93.8784     1.3466
   -1.250     0.000   0.201532   0.000888   0.005082   0.005969   0.000000  -0.000000  -0.036782  -0.000000  -0.000000   93.8784     1.2798
   -1.000     0.000   0.224623   0.001103   0.004868   0.005971   0.000000  -0.000000  -0.033277   0.000000  -0.000000   93.8784     1.2355
   -0.750     0.000   0.247753   0.001341   0.004655   0.005997   0.000000  -0.000000  -0.029791  -0.000000  -0.000000   93.8784     1.1974
   -0.500     0.000   0.271448   0.001609   0.004483   0.006092   0.000000   0.000000  -0.026351  -0.000000  -0.000000   93.8784     1.1656
   -0.250     0.000   0.295335   0.001904   0.004326   0.006230   0.000000   0.000000  -0.022915  -0.000000  -0.000000   93.8784     1.1365
    0.000     0.000   0.319550   0.002228   0.004196   0.006424   0.000000  -0.000000  -0.019534   0.000000  -0.000000   93.8784     1.1122
    0.250     0.000   0.343867   0.002578   0.004068   0.006646   0.000000   0.000000  -0.016167   0.000000  -0.000000   93.8784     1.0918
    0.500     0.000   0.368492   0.002960   0.003972   0.006932   0.000000  -0.000000  -0.012839   0.000000  -0.000000   93.8784     1.0744
    0.750     0.000   0.393274   0.003370   0.003879   0.007249   0.000000   0.000000  -0.009523   0.000000  -0.000000   93.8784     1.0598
    1.000     0.000   0.418198   0.003809   0.003799   0.007608   0.000000  -0.000000  -0.006213   0.000000  -0.000000   93.8784     1.0467
    1.250     0.000   0.443508   0.004283   0.003753   0.008035   0.000000   0.000000  -0.002905  -0.000000  -0.000000   93.8784     1.0353
    1.500     0.000   0.468876   0.004785   0.003712   0.008497   0.000000  -0.000000   0.000407  -0.000000  -0.000000   93.8784     1.0247
    1.750     0.000   0.494354   0.005318   0.003681   0.008999   0.000000  -0.000000   0.003717  -0.000000  -0.000000   93.8784     1.0154
    2.000     0.000   0.519974   0.005883   0.003668   0.009550   0.000000  -0.000000   0.007030  -0.000000  -0.000000   93.8784     1.0068
    2.250     0.000   0.545660   0.006478   0.003667   0.010145   0.000000  -0.000000   0.010342  -0.000000  -0.000000   93.8784     0.9993
    2.500     0.000   0.571302   0.007100   0.003678   0.010778   0.000000  -0.000000   0.013652  -0.000000  -0.000000   93.8784     0.9923
    2.750     0.000   0.596902   0.007750   0.003699   0.011449   0.000000  -0.000000   0.016952  -0.000000  -0.000000   93.8784     0.9860
    3.000     0.000   0.622338   0.008424   0.003727   0.012150   0.000000  -0.000000   0.020253  -0.000000  -0.000000   93.8784     0.9801
    3.250     0.000   0.647624   0.009122   0.003760   0.012881   0.000000  -0.000000   0.023562  -0.000000  -0.000000   93.8784     0.9746
    3.500     0.000   0.672923   0.009848   0.003795   0.013643   0.000000  -0.000000   0.026864  -0.000000  -0.000000   93.8784     0.9696
    3.750     0.000   0.698143   0.010600   0.003831   0.014431   0.000000  -0.000000   0.030173  -0.000000  -0.000000   93.8784     0.9649
    4.000     0.000   0.723187   0.011374   0.003875   0.015250   0.000000  -0.000000   0.033486  -0.000000  -0.000000   93.8784     0.9604
    4.250     0.000   0.747600   0.012154   0.003952   0.016107   0.000000  -0.000000   0.036801  -0.000000  -0.000000   93.8784     0.9561
    4.500     0.000   0.771101   0.012933   0.004071   0.017004   0.000000  -0.000000   0.040163  -0.000000  -0.000000   93.8784     0.9519
    4.750     0.000   0.793674   0.013700   0.004235   0.017935   0.000000  -0.000000   0.043540  -0.000000  -0.000000   93.8784     0.9478
    5.000     0.000   0.815553   0.014469   0.004425   0.018894   0.000000   0.000000   0.046967  -0.000000  -0.000000   93.8784     0.9438
    5.250     0.000   0.837203   0.015253   0.004623   0.019876   0.000000  -0.000000   0.050408  -0.000000  -0.000000   93.8784     0.9399
    5.500     0.000   0.857559   0.016018   0.004869   0.020887   0.000000  -0.000000   0.054005  -0.000000  -0.000000   93.8784     0.9359
    5.750     0.000   0.877505   0.016787   0.005125   0.021912   0.000000  -0.000000   0.057623  -0.000000  -0.000000   93.8784     0.9319
    6.000     0.000   0.897388   0.017567   0.005370   0.022937   0.000000   0.000000   0.061232  -0.000000  -0.000000   93.8784     0.9281
    6.250     0.000   0.917510   0.018374   0.005599   0.023973   0.000000  -0.000000   0.064842  -0.000000  -0.000000   93.8784     0.9244
    6.500     0.000   0.936973   0.019177   0.005829   0.025006   0.000000   0.000000   0.068546  -0.000000  -0.000000   93.8784     0.9208
    6.750     0.000   0.955749   0.019970   0.006074   0.026044   0.000000  -0.000000   0.072306  -0.000000  -0.000000   93.8784     0.9170
    7.000     0.000   0.973764   0.020750   0.006327   0.027077   0.000000  -0.000000   0.076120  -0.000000  -0.000000   93.8784     0.9133
    7.250     0.000   0.991333   0.021524   0.006584   0.028108   0.000000  -0.000000   0.079945  -0.000000  -0.000000   93.8784     0.9095
    7.500     0.000   1.008837   0.022311   0.006827   0.029138   0.000000   0.000000   0.083784  -0.000000  -0.000000   93.8784     0.9058
    7.750     0.000   1.026041   0.023100   0.007052   0.030152   0.000000  -0.000000   0.087675  -0.000000  -0.000000   93.8784     0.9022
    8.000     0.000   1.041302   0.023836   0.007279   0.031115   0.000000  -0.000000   0.091839  -0.000000  -0.000000   93.8784     0.8981
    8.250     0.000   1.054137   0.024483   0.007509   0.031992   0.000000  -0.000000   0.096269  -0.000000  -0.000000   93.8784     0.8934
    8.500     0.000   1.066333   0.025107   0.007744   0.032851   0.000000   0.000000   0.100658  -0.000000  -0.000000   93.8784     0.8889
    8.750     0.000   1.077773   0.025693   0.007990   0.033683   0.000000   0.000000   0.105026  -0.000000  -0.000000   93.8784     0.8843
    9.000     0.000   1.088833   0.026259   0.008246   0.034505   0.000000  -0.000000   0.109329  -0.000000  -0.000000   93.8784     0.8798
    9.250     0.000   1.099825   0.026826   0.008517   0.035343   0.000000   0.000000   0.113622  -0.000000  -0.000000   93.8784     0.8755
    9.500     0.000   1.109321   0.027344   0.008839   0.036183   0.000000  -0.000000   0.117989  -0.000000  -0.000000   93.8784     0.8709
    9.750     0.000   1.117143   0.027789   0.009201   0.036990   0.000000  -0.000000   0.122363  -0.000000  -0.000000   93.8784     0.8661
   10.000     0.000   1.124198   0.028201   0.009614   0.037815   0.000000  -0.000000   0.126641  -0.000000  -0.000000   93.8784     0.8614
   10.250     0.000   1.131455   0.028620   0.010048   0.038667   0.000000   0.000000   0.130856  -0.000000  -0.000000   93.8784     0.8568
   10.500     0.000   1.139058   0.029047   0.010519   0.039565   0.000000  -0.000000   0.134859  -0.000000  -0.000000   93.8784     0.8525
   10.750     0.000   1.146318   0.029460   0.011031   0.040491   0.000000  -0.000000   0.138817  -0.000000  -0.000000   93.8784     0.8483
   11.000     0.000   1.154143   0.029884   0.011570   0.041454   0.000000  -0.000000   0.142628  -0.000000  -0.000000   93.8784     0.8444
   11.250     0.000   1.162145   0.030317   0.012135   0.042453   0.000000  -0.000000   0.146317  -0.000000  -0.000000   93.8784     0.8407
   11.500     0.000   1.169459   0.030718   0.012777   0.043496   0.000000   0.000000   0.149803  -0.000000  -0.000000   93.8784     0.8371
   11.750     0.000   1.176632   0.031117   0.013455   0.044571   0.000000  -0.000000   0.153232  -0.000000  -0.000000   93.8784     0.8336
   12.000     0.000   1.184402   0.031561   0.014163   0.045724   0.000000  -0.000000   0.156597  -0.000000  -0.000000   93.8784     0.8303
   12.250     0.000   1.191682   0.031993   0.014923   0.046916   0.000000  -0.000000   0.159941   0.000000  -0.000000   93.8784     0.8269
   12.500     0.000   1.198054   0.032366   0.015761   0.048127   0.000000  -0.000000   0.163043  -0.000000  -0.000000   93.8784     0.8237
   12.750     0.000   1.204738   0.032729   0.016596   0.049326   0.000000   0.000000   0.166014  -0.000000  -0.000000   93.8784     0.8207
   13.000     0.000   1.212070   0.033131   0.017435   0.050566   0.000000   0.000000   0.168935  -0.000000  -0.000000   93.8784     0.8179
   13.250     0.000   1.219248   0.033537   0.018317   0.051854   0.000000  -0.000000   0.171845  -0.000000  -0.000000   93.8784     0.8151
   13.500     0.000   1.227465   0.033994   0.019163   0.053157   0.000000  -0.000000   0.174774  -0.000000  -0.000000   93.8784     0.8125
   13.750     0.000   1.236498   0.034484   0.019984   0.054468   0.000000  -0.000000   0.177643  -0.000000  -0.000000   93.8784     0.8100
   14.000     0.000   1.245237   0.034963   0.020853   0.055816   0.000000  -0.000000   0.180356  -0.000000  -0.000000   93.8784     0.8077
   14.250     0.000   1.252904   0.035394   0.021812   0.057206   0.000000   0.000000   0.182880  -0.000000  -0.000000   93.8784     0.8055
   14.500     0.000   1.260509   0.035833   0.022795   0.058628   0.000000   0.000000   0.185302  -0.000000  -0.000000   93.8784     0.8033
   14.750     0.000   1.268990   0.036323   0.023752   0.060075   0.000000   0.000000   0.187750  -0.000000  -0.000000   93.8784     0.8013
   15.000     0.000   1.278692   0.036884   0.024639   0.061523   0.000000   0.000000   0.190275  -0.000000  -0.000000   93.8784     0.7994
   15.250     0.000   1.288556   0.037455   0.025527   0.062982   0.000000  -0.000000   0.192731  -0.000000  -0.000000   93.8784     0.7976
   15.500     0.000   1.296863   0.037940   0.026537   0.064478   0.000000   0.000000   0.195058  -0.000000  -0.000000   93.8784     0.7957
   15.750     0.000   1.304065   0.038374   0.027638   0.066012   0.000000  -0.000000   0.197220  -0.000000  -0.000000   93.8784     0.7938
   16.000     0.000   1.313074   0.038903   0.028681   0.067584   0.000000   0.000000   0.199256  -0.000000  -0.000000   93.8784     0.7923
   16.250     0.000   1.325293   0.039589   0.029712   0.069300   0.000000  -0.000000   0.200789   0.000000  -0.000000   93.8784     0.7918
   16.500     0.000   1.337365   0.040277   0.030816   0.071092   0.000000  -0.000000   0.202125   0.000000  -0.000000   93.8784     0.7915
   16.750     0.000   1.350519   0.041000   0.032013   0.073013   0.000000  -0.000000   0.202951   0.000000   0.000000   93.8784     0.7918
   17.000     0.000   1.363823   0.041732   0.033228   0.074960   0.000000  -0.000000   0.203645   0.000000   0.000000   93.8784     0.7923
   17.250     0.000   1.377205   0.042484   0.034630   0.077114   0.000000  -0.000000   0.204239   0.000000   0.000000   93.8784     0.7928
   17.500     0.000   1.390602   0.043273   0.036131   0.079404   0.000000  -0.000000   0.204930   0.000000   0.000000   93.8784     0.7932
   17.750     0.000   1.401740   0.043918   0.037663   0.081581   0.000000  -0.000000   0.206147   0.000000   0.000000   93.8784     0.7927
   18.000     0.000   1.411159   0.044520   0.039061   0.083582   0.000000  -0.000000   0.207452  -0.000000  -0.000000   93.8784     0.7919
   18.250     0.000   1.422639   0.045247   0.040542   0.085789   0.000000   0.000000   0.208394  -0.000000  -0.000000   93.8784     0.7917
   18.500     0.000   1.437713   0.046199   0.042175   0.088374   0.000000  -0.000000   0.209114  -0.000000  -0.000000   93.8784     0.7922
   18.750     0.000   1.452948   0.047179   0.043762   0.090940   0.000000  -0.000000   0.210015   0.000000   0.000000   93.8784     0.7925
   19.000     0.000   1.464233   0.047903   0.045373   0.093276   0.000000  -0.000000   0.210884   0.000000   0.000000   93.8784     0.7923
   19.250     0.000   1.474821   0.048596   0.046931   0.095527   0.000000  -0.000000   0.212047   0.000000  -0.000000   93.8784     0.7917
   19.500     0.000   1.484906   0.049292   0.048452   0.097744   0.000000  -0.000000   0.213365  -0.000000  -0.000000   93.8784     0.7908
   19.750     0.000   1.495510   0.050053   0.050081   0.100134   0.000000   0.000000   0.214494  -0.000000  -0.000000   93.8784     0.7902
   20.000     0.000   1.506113   0.050843   0.051890   0.102733   0.000000   0.000000   0.215435  -0.000000  -0.000000   93.8784     0.7898
   20.250     0.000   1.515678   0.051578   0.053680   0.105257   0.000000  -0.000000   0.216485  -0.000000  -0.000000   93.8784     0.7891
   20.500     0.000   1.526113   0.052373   0.055320   0.107694   0.000000  -0.000000   0.217717  -0.000000  -0.000000   93.8784     0.7883
   20.750     0.000   1.535777   0.053135   0.057045   0.110180   0.000000  -0.000000   0.218999   0.000000   0.000000   93.8784     0.7874
   21.000     0.000   1.543475   0.053764   0.058922   0.112686   0.000000   0.000000   0.220082   0.000000  -0.000000   93.8784     0.7864
   21.250     0.000   1.550414   0.054322   0.060792   0.115114   0.000000   0.000000   0.221065   0.000000   0.000000   93.8784     0.7854
   21.500     0.000   1.557807   0.054919   0.062636   0.117555   0.000000   0.000000   0.222083   0.000000   0.000000   93.8784     0.7844
   21.750     0.000   1.564266   0.055484   0.064623   0.120108   0.000000  -0.000000   0.223017   0.000000   0.000000   93.8784     0.7833
   22.000     0.000   1.570074   0.055997   0.066683   0.122681   0.000000   0.000000   0.223815   0.000000   0.000000   93.8784     0.7823
   22.250     0.000   1.575256   0.056460   0.068639   0.125099   0.000000  -0.000000   0.224766   0.000000   0.000000   93.8784     0.7810
   22.500     0.000   1.580880   0.056974   0.070541   0.127515   0.000000  -0.000000   0.225802   0.000000   0.000000   93.8784     0.7798
   22.750     0.000   1.584370   0.057330   0.072683   0.130014   0.000000  -0.000000   0.226371   0.000000   0.000000   93.8784     0.7786
   23.000     0.000   1.586237   0.057577   0.075031   0.132608   0.000000  -0.000000   0.226706   0.000000   0.000000   93.8784     0.7775
   23.250     0.000   1.588071   0.057828   0.077401   0.135228   0.000000  -0.000000   0.227123   0.000000   0.000000   93.8784     0.7762
   23.500     0.000   1.590904   0.058132   0.079634   0.137765   0.000000  -0.000000   0.227680   0.000000   0.000000   93.8784     0.7750
   23.750     0.000   1.592346   0.058349   0.082016   0.140365   0.000000  -0.000000   0.227957   0.000000   0.000000   93.8784     0.7738
   24.000     0.000   1.591657   0.058466   0.084652   0.143118   0.000000  -0.000000   0.227940   0.000000   0.000000   93.8784     0.7726
   24.250     0.000   1.590187   0.058563   0.087359   0.145922   0.000000  -0.000000   0.227955   0.000000   0.000000   93.8784     0.7712
   24.500     0.000   1.587617   0.058585   0.090167   0.148752   0.000000  -0.000000   0.227807   0.000000   0.000000   93.8784     0.7699
   24.750     0.000   1.583172   0.058464   0.093100   0.151565   0.000000  -0.000000   0.227411   0.000000   0.000000   93.8784     0.7685
   25.000     0.000   1.580119   0.058465   0.095869   0.154334   0.000000  -0.000000   0.227293   0.000000   0.000000   93.8784     0.7670
   25.250     0.000   1.577698   0.058520   0.098576   0.157096   0.000000  -0.000000   0.227161  -0.000000  -0.000000   93.8784     0.7656
   25.500     0.000   1.571848   0.058308   0.101803   0.160110   0.000000   0.000000   0.225970   0.000000  -0.000000   93.8784     0.7647
   25.750     0.000   1.562786   0.058005   0.105130   0.163135   0.000000  -0.000000   0.224559   0.000000  -0.000000   93.8784     0.7637
   26.000     0.000   1.555995   0.057692   0.108714   0.166405   0.000000  -0.000000   0.222756   0.000000   0.000000   93.8784     0.7632
   26.250     0.000   1.548896   0.057353   0.112452   0.169805   0.000000   0.000000   0.220553   0.000000   0.000000   93.8784     0.7630
   26.500     0.000   1.541161   0.057016   0.116355   0.173371   0.000000   0.000000   0.218111   0.000000   0.000000   93.8784     0.7630
   26.750     0.000   1.532498   0.056626   0.120257   0.176883   0.000000  -0.000000   0.215634   0.000000   0.000000   93.8784     0.7629
   27.000     0.000   1.521599   0.056151   0.123935   0.180086   0.000000   0.000000   0.213661   0.000000   0.000000   93.8784     0.7621
   27.250     0.000   1.514123   0.055872   0.127853   0.183725   0.000000   0.000000   0.211318   0.000000   0.000000   93.8784     0.7620
   27.500     0.000   1.501085   0.055210   0.132004   0.187214   0.000000  -0.000000   0.207780   0.000000   0.000000   93.8784     0.7623
   27.750     0.000   1.492573   0.054940   0.136521   0.191461   0.000000  -0.000000   0.204409   0.000000   0.000000   93.8784     0.7631
   28.000     0.000   1.483456   0.054693   0.141215   0.195909   0.000000  -0.000000   0.200693   0.000000   0.000000   93.8784     0.7640
   28.250     0.000   1.474997   0.054435   0.145807   0.200242   0.000000   0.000000   0.196907   0.000000   0.000000   93.8784     0.7651


