xflr5 v6.12

Wing name :        full
Wing polar name :  T1-250.0 mph-VLM2
Freestream speed : 250.000 mph


   alpha      Beta       CL          CDi        CDv        CD         CY         Cl         Cm         Cn        Cni       QInf        XCP
  -14.250     0.000  -0.821665   0.018535   0.016311   0.034846   0.000000  -0.000000   0.402669  -0.000000  -0.000000  111.7600     1.9079
  -14.000     0.000  -0.797184   0.017591   0.012581   0.030172   0.000000  -0.000000   0.399694  -0.000000  -0.000000  111.7600     1.9215
  -13.750     0.000  -0.772658   0.016671   0.011733   0.028404   0.000000  -0.000000   0.396501  -0.000000  -0.000000  111.7600     1.9360
  -13.500     0.000  -0.748087   0.015775   0.011495   0.027271   0.000000  -0.000000   0.393233  -0.000000  -0.000000  111.7600     1.9515
  -13.250     0.000  -0.723474   0.014905   0.011279   0.026184   0.000000  -0.000000   0.389922  -0.000000  -0.000000  111.7600     1.9682
  -13.000     0.000  -0.698819   0.014060   0.011078   0.025137   0.000000  -0.000000   0.386568  -0.000000  -0.000000  111.7600     1.9861
  -12.750     0.000  -0.674123   0.013240   0.011140   0.024380   0.000000  -0.000000   0.383159  -0.000000  -0.000000  111.7600     2.0055
  -12.500     0.000  -0.649387   0.012445   0.010890   0.023335   0.000000  -0.000000   0.379722  -0.000000  -0.000000  111.7600     2.0264
  -12.250     0.000  -0.624614   0.011676   0.010679   0.022356   0.000000  -0.000000   0.376241  -0.000000  -0.000000  111.7600     2.0490
  -12.000     0.000  -0.599803   0.010934   0.010489   0.021423   0.000000  -0.000000   0.372718  -0.000000  -0.000000  111.7600     2.0736
  -11.750     0.000  -0.574955   0.010217   0.010319   0.020536   0.000000  -0.000000   0.369154  -0.000000  -0.000000  111.7600     2.1004
  -11.500     0.000  -0.550073   0.009526   0.010160   0.019686   0.000000  -0.000000   0.365547  -0.000000  -0.000000  111.7600     2.1297
  -11.250     0.000  -0.525157   0.008862   0.010008   0.018871   0.000000  -0.000000   0.361901  -0.000000  -0.000000  111.7600     2.1619
  -11.000     0.000  -0.500209   0.008225   0.009864   0.018088   0.000000  -0.000000   0.358214  -0.000000  -0.000000  111.7600     2.1974
  -10.750     0.000  -0.475229   0.007614   0.009720   0.017334   0.000000  -0.000000   0.354488  -0.000000  -0.000000  111.7600     2.2367
  -10.500     0.000  -0.450219   0.007030   0.009574   0.016603   0.000000  -0.000000   0.350722  -0.000000  -0.000000  111.7600     2.2805
  -10.250     0.000  -0.425180   0.006473   0.009428   0.015901   0.000000  -0.000000   0.346918  -0.000000  -0.000000  111.7600     2.3295
  -10.000     0.000  -0.400113   0.005943   0.009288   0.015231   0.000000  -0.000000   0.343074  -0.000000  -0.000000  111.7600     2.3849
   -9.750     0.000  -0.375019   0.005441   0.009162   0.014603   0.000000  -0.000000   0.339191  -0.000000  -0.000000  111.7600     2.4477
   -9.500     0.000  -0.349900   0.004966   0.009041   0.014007   0.000000  -0.000000   0.335269  -0.000000  -0.000000  111.7600     2.5197
   -9.250     0.000  -0.324756   0.004518   0.008927   0.013446  -0.000000  -0.000000   0.331309  -0.000000  -0.000000  111.7600     2.6029
   -9.000     0.000  -0.299590   0.004098   0.008819   0.012917  -0.000000  -0.000000   0.327311  -0.000000   0.000000  111.7600     2.7003
   -8.750     0.000  -0.274401   0.003706   0.008716   0.012422  -0.000000  -0.000000   0.323275  -0.000000   0.000000  111.7600     2.8157
   -8.500     0.000  -0.249192   0.003342   0.008611   0.011953  -0.000000  -0.000000   0.319202   0.000000   0.000000  111.7600     2.9547
   -8.250     0.000  -0.223964   0.003006   0.008503   0.011509  -0.000000  -0.000000   0.315092   0.000000   0.000000  111.7600     3.1251
   -8.000     0.000  -0.198717   0.002698   0.008394   0.011093  -0.000000  -0.000000   0.310946   0.000000   0.000000  111.7600     3.3390
   -7.750     0.000  -0.173453   0.002419   0.008278   0.010697  -0.000000  -0.000000   0.306765   0.000000   0.000000  111.7600     3.6155
   -7.500     0.000  -0.148174   0.002167   0.008149   0.010317  -0.000000  -0.000000   0.302549   0.000000   0.000000  111.7600     3.9866
   -7.250     0.000  -0.122880   0.001944   0.008019   0.009963  -0.000000  -0.000000   0.298297   0.000000   0.000000  111.7600     4.5108
   -7.000     0.000  -0.097572   0.001750   0.007887   0.009637  -0.000000  -0.000000   0.294010   0.000000   0.000000  111.7600     5.3073
   -6.750     0.000  -0.072253   0.001584   0.007755   0.009339  -0.000000  -0.000000   0.289689   0.000000   0.000000  111.7600     6.6627
   -6.500     0.000  -0.046923   0.001446   0.007627   0.009074  -0.000000  -0.000000   0.285332   0.000000   0.000000  111.7600     9.4826
   -6.250     0.000  -0.021583   0.001338   0.007500   0.008838  -0.000000   0.000000   0.280942   0.000000   0.000000  111.7600    18.9266
   -6.000     0.000   0.003766   0.001258   0.007370   0.008628  -0.000000   0.000000   0.276517   0.000000   0.000000  111.7600   -98.7929
   -5.750     0.000   0.029121   0.001207   0.007240   0.008447  -0.000000   0.000000   0.272058   0.000000   0.000000  111.7600   -11.5222
   -5.500     0.000   0.054483   0.001184   0.007103   0.008287  -0.000000   0.000000   0.267566   0.000000   0.000000  111.7600    -5.4890
   -5.250     0.000   0.079849   0.001191   0.006959   0.008149  -0.000000   0.000000   0.263042   0.000000   0.000000  111.7600    -3.2883
   -5.000     0.000   0.105218   0.001226   0.006796   0.008022  -0.000000   0.000000   0.258487   0.000000   0.000000  111.7600    -2.1486
   -4.750     0.000   0.130590   0.001290   0.006596   0.007886  -0.000000   0.000000   0.253901   0.000000   0.000000  111.7600    -1.4517
   -4.500     0.000   0.155963   0.001384   0.006392   0.007776  -0.000000   0.000000   0.249283   0.000000   0.000000  111.7600    -0.9815
   -4.250     0.000   0.181335   0.001506   0.006167   0.007673  -0.000000   0.000000   0.244636   0.000000   0.000000  111.7600    -0.6428
   -4.000     0.000   0.206706   0.001657   0.005938   0.007595  -0.000000   0.000000   0.239957   0.000000   0.000000  111.7600    -0.3873
   -3.750     0.000   0.232074   0.001837   0.005748   0.007585  -0.000000   0.000000   0.235246   0.000000   0.000000  111.7600    -0.1877
   -3.500     0.000   0.257438   0.002047   0.005594   0.007640  -0.000000   0.000000   0.230503   0.000000   0.000000  111.7600    -0.0274
   -3.250     0.000   0.282797   0.002285   0.005464   0.007749  -0.000000   0.000000   0.225729   0.000000   0.000000  111.7600     0.1042
   -3.000     0.000   0.308150   0.002552   0.005339   0.007891  -0.000000   0.000000   0.220924   0.000000   0.000000  111.7600     0.2141
   -2.750     0.000   0.333494   0.002848   0.005248   0.008096  -0.000000   0.000000   0.216088   0.000000   0.000000  111.7600     0.3073
   -2.500     0.000   0.358830   0.003173   0.005170   0.008343  -0.000000   0.000000   0.211223   0.000000   0.000000  111.7600     0.3873
   -2.250     0.000   0.384156   0.003527   0.005095   0.008622  -0.000000   0.000000   0.206330   0.000000   0.000000  111.7600     0.4568
   -2.000     0.000   0.409470   0.003910   0.005043   0.008953  -0.000000   0.000000   0.201407   0.000000   0.000000  111.7600     0.5177
   -1.750     0.000   0.434771   0.004322   0.005013   0.009335  -0.000000   0.000000   0.196456   0.000000   0.000000  111.7600     0.5715
   -1.500     0.000   0.460058   0.004762   0.004993   0.009755  -0.000000   0.000000   0.191476   0.000000   0.000000  111.7600     0.6194
   -1.250     0.000   0.485331   0.005232   0.004978   0.010209  -0.000000   0.000000   0.186470   0.000000   0.000000  111.7600     0.6624
   -1.000     0.000   0.510586   0.005730   0.004971   0.010701  -0.000000   0.000000   0.181436   0.000000   0.000000  111.7600     0.7010
   -0.750     0.000   0.535825   0.006256   0.004977   0.011233  -0.000000   0.000000   0.176376   0.000000   0.000000  111.7600     0.7361
   -0.500     0.000   0.561044   0.006812   0.004988   0.011800  -0.000000   0.000000   0.171291   0.000000   0.000000  111.7600     0.7680
   -0.250     0.000   0.586243   0.007395   0.005005   0.012400  -0.000000   0.000000   0.166179   0.000000   0.000000  111.7600     0.7972
    0.000     0.000   0.611421   0.008008   0.005026   0.013033  -0.000000   0.000000   0.161042   0.000000   0.000000  111.7600     0.8240
    0.250     0.000   0.636576   0.008648   0.005051   0.013699  -0.000000   0.000000   0.155881   0.000000   0.000000  111.7600     0.8486
    0.500     0.000   0.661708   0.009317   0.005074   0.014391  -0.000000   0.000000   0.150695   0.000000   0.000000  111.7600     0.8715
    0.750     0.000   0.686814   0.010014   0.005097   0.015111  -0.000000   0.000000   0.145485   0.000000   0.000000  111.7600     0.8926
    1.000     0.000   0.711895   0.010739   0.005128   0.015867  -0.000000   0.000000   0.140251   0.000000   0.000000  111.7600     0.9123
    1.250     0.000   0.736947   0.011492   0.005172   0.016664  -0.000000   0.000000   0.134994   0.000000   0.000000  111.7600     0.9307
    1.500     0.000   0.761972   0.012273   0.005233   0.017506  -0.000000   0.000000   0.129714   0.000000   0.000000  111.7600     0.9479
    1.750     0.000   0.786966   0.013082   0.005330   0.018412  -0.000000   0.000000   0.124410   0.000000   0.000000  111.7600     0.9640
    2.000     0.000   0.811929   0.013918   0.005491   0.019409  -0.000000   0.000000   0.119084   0.000000   0.000000  111.7600     0.9791
    2.250     0.000   0.836860   0.014782   0.005700   0.020482  -0.000000   0.000000   0.113735   0.000000   0.000000  111.7600     0.9934
    2.500     0.000   0.861758   0.015673   0.005958   0.021631  -0.000000   0.000000   0.108363   0.000000   0.000000  111.7600     1.0068
    2.750     0.000   0.886620   0.016592   0.006236   0.022828  -0.000000   0.000000   0.102970   0.000000   0.000000  111.7600     1.0195
    3.000     0.000   0.911447   0.017538   0.006525   0.024062  -0.000000   0.000000   0.097558   0.000000   0.000000  111.7600     1.0316
    3.250     0.000   0.936237   0.018510   0.006818   0.025328  -0.000000   0.000000   0.092125   0.000000   0.000000  111.7600     1.0430
    3.500     0.000   0.960989   0.019510   0.007116   0.026625  -0.000000   0.000000   0.086673   0.000000   0.000000  111.7600     1.0538
    3.750     0.000   0.985701   0.020536   0.007434   0.027970  -0.000000   0.000000   0.081201   0.000000   0.000000  111.7600     1.0642
    4.000     0.000   1.010373   0.021588   0.007777   0.029365  -0.000000   0.000000   0.075710   0.000000   0.000000  111.7600     1.0740
    4.250     0.000   1.035002   0.022667   0.008126   0.030793  -0.000000   0.000000   0.070201   0.000000   0.000000  111.7600     1.0834
    4.500     0.000   1.059589   0.023772   0.008531   0.032304  -0.000000   0.000000   0.064671   0.000000   0.000000  111.7600     1.0924
    4.750     0.000   1.084132   0.024903   0.009143   0.034047  -0.000000   0.000000   0.059115  -0.000000   0.000000  111.7600     1.1010
    5.000     0.000   1.108629   0.026060   0.009897   0.035957  -0.000000   0.000000   0.053536  -0.000000   0.000000  111.7600     1.1093
    5.250     0.000   1.133081   0.027243   0.010899   0.038142  -0.000000   0.000000   0.047935  -0.000000   0.000000  111.7600     1.1172
    5.500     0.000   1.157484   0.028451   0.012097   0.040548  -0.000000   0.000000   0.042314  -0.000000   0.000000  111.7600     1.1248
    5.750     0.000   1.181839   0.029684   0.013534   0.043218  -0.000000   0.000000   0.036673  -0.000000   0.000000  111.7600     1.1322
    6.000     0.000   1.206144   0.030942   0.015164   0.046106  -0.000000   0.000000   0.031018  -0.000000   0.000000  111.7600     1.1392
    6.250     0.000   1.230398   0.032226   0.016878   0.049103  -0.000000   0.000000   0.025353  -0.000000   0.000000  111.7600     1.1460
    6.500     0.000   1.254600   0.033533   0.018693   0.052226  -0.000000   0.000000   0.019678  -0.000000   0.000000  111.7600     1.1526
    6.750     0.000   1.278749   0.034865   0.020695   0.055561  -0.000000   0.000000   0.013989  -0.000000   0.000000  111.7600     1.1589
    7.000     0.000   1.302843   0.036222   0.022824   0.059046  -0.000000   0.000000   0.008290  -0.000000   0.000000  111.7600     1.1651
    7.250     0.000   1.326882   0.037602   0.024911   0.062513  -0.000000   0.000000   0.002590  -0.000000   0.000000  111.7600     1.1710
    7.500     0.000   1.350864   0.039006   0.026918   0.065924  -0.000000   0.000000  -0.003113  -0.000000   0.000000  111.7600     1.1768
    7.750     0.000   1.374789   0.040434   0.028844   0.069278  -0.000000   0.000000  -0.008816  -0.000000   0.000000  111.7600     1.1823
    8.000     0.000   1.398655   0.041885   0.029825   0.071709  -0.000000   0.000000  -0.014474  -0.000000   0.000000  111.7600     1.1878
    8.250     0.000   1.422461   0.043358   0.031830   0.075189  -0.000000   0.000000  -0.020187  -0.000000   0.000000  111.7600     1.1930
    8.500     0.000   1.446207   0.044855   0.034172   0.079027  -0.000000   0.000000  -0.025922  -0.000000   0.000000  111.7600     1.1982


