xflr5 v6.12

Wing name :        horizontal tail
Wing polar name :  T1-250.0 mph-LLT
Freestream speed : 250.000 mph


   alpha      Beta       CL          CDi        CDv        CD         CY         Cl         Cm         Cn        Cni       QInf        XCP
  -20.000     0.000  -1.532936   0.137619   0.018082   0.155701   0.000000   0.000000  -0.215471  -0.000000  -0.000000  111.7600     0.4440
  -19.750     0.000  -1.519368   0.135115   0.017597   0.152713   0.000000   0.000000  -0.212644  -0.000000  -0.000000  111.7600     0.4448
  -19.500     0.000  -1.505355   0.132567   0.017146   0.149713   0.000000   0.000000  -0.209800  -0.000000  -0.000000  111.7600     0.4455
  -19.250     0.000  -1.490904   0.129974   0.016731   0.146705   0.000000   0.000000  -0.206958  -0.000000  -0.000000  111.7600     0.4463
  -19.000     0.000  -1.475907   0.127324   0.016327   0.143651   0.000000  -0.000000  -0.204138  -0.000000  -0.000000  111.7600     0.4470
  -18.750     0.000  -1.460531   0.124645   0.015947   0.140592   0.000000   0.000000  -0.201343  -0.000000  -0.000000  111.7600     0.4476
  -18.500     0.000  -1.444819   0.121941   0.015584   0.137525   0.000000   0.000000  -0.198551  -0.000000  -0.000000  111.7600     0.4482
  -18.250     0.000  -1.428841   0.119226   0.015233   0.134460   0.000000   0.000000  -0.195757   0.000000  -0.000000  111.7600     0.4489
  -18.000     0.000  -1.412684   0.116516   0.014890   0.131406   0.000000   0.000000  -0.192965  -0.000000  -0.000000  111.7600     0.4495
  -17.750     0.000  -1.396252   0.113797   0.014559   0.128356   0.000000   0.000000  -0.190174  -0.000000  -0.000000  111.7600     0.4500
  -17.500     0.000  -1.379704   0.111095   0.014233   0.125328   0.000000  -0.000000  -0.187384  -0.000000  -0.000000  111.7600     0.4506
  -17.250     0.000  -1.362762   0.108368   0.013930   0.122298   0.000000   0.000000  -0.184618  -0.000000  -0.000000  111.7600     0.4512
  -17.000     0.000  -1.345670   0.105655   0.013642   0.119298   0.000000   0.000000  -0.181857  -0.000000  -0.000000  111.7600     0.4517
  -16.750     0.000  -1.328389   0.102953   0.013373   0.116325   0.000000   0.000000  -0.179096  -0.000000  -0.000000  111.7600     0.4522
  -16.500     0.000  -1.310935   0.100262   0.013114   0.113376   0.000000  -0.000000  -0.176337  -0.000000  -0.000000  111.7600     0.4527
  -16.250     0.000  -1.293145   0.097550   0.012862   0.110412   0.000000   0.000000  -0.173623  -0.000000  -0.000000  111.7600     0.4532
  -16.000     0.000  -1.275227   0.094858   0.012619   0.107477   0.000000   0.000000  -0.170911   0.000000   0.000000  111.7600     0.4536
  -15.750     0.000  -1.257280   0.092199   0.012381   0.104580   0.000000   0.000000  -0.168195  -0.000000  -0.000000  111.7600     0.4540
  -15.500     0.000  -1.239404   0.089590   0.012148   0.101738   0.000000   0.000000  -0.165453  -0.000000  -0.000000  111.7600     0.4545
  -15.250     0.000  -1.221582   0.087025   0.011916   0.098941   0.000000  -0.000000  -0.162687  -0.000000  -0.000000  111.7600     0.4550
  -15.000     0.000  -1.203453   0.084449   0.011681   0.096130   0.000000   0.000000  -0.159961  -0.000000  -0.000000  111.7600     0.4554
  -14.750     0.000  -1.185078   0.081872   0.011451   0.093324   0.000000  -0.000000  -0.157254  -0.000000  -0.000000  111.7600     0.4558
  -14.500     0.000  -1.166733   0.079341   0.011233   0.090574   0.000000   0.000000  -0.154524  -0.000000  -0.000000  111.7600     0.4563
  -14.250     0.000  -1.148205   0.076825   0.011029   0.087854   0.000000   0.000000  -0.151803  -0.000000  -0.000000  111.7600     0.4567
  -14.000     0.000  -1.129385   0.074309   0.010834   0.085143   0.000000   0.000000  -0.149110  -0.000000  -0.000000  111.7600     0.4570
  -13.750     0.000  -1.110592   0.071839   0.010644   0.082483   0.000000   0.000000  -0.146402  -0.000000  -0.000000  111.7600     0.4574
  -13.500     0.000  -1.091673   0.069394   0.010454   0.079848   0.000000  -0.000000  -0.143693  -0.000000  -0.000000  111.7600     0.4578
  -13.250     0.000  -1.072653   0.066976   0.010261   0.077238   0.000000   0.000000  -0.140981  -0.000000  -0.000000  111.7600     0.4581
  -13.000     0.000  -1.053532   0.064590   0.010064   0.074654   0.000000   0.000000  -0.138273  -0.000000  -0.000000  111.7600     0.4585
  -12.750     0.000  -1.033948   0.062196   0.009881   0.072076   0.000000   0.000000  -0.135619  -0.000000  -0.000000  111.7600     0.4587
  -12.500     0.000  -1.013832   0.059791   0.009710   0.069501   0.000000   0.000000  -0.133047  -0.000000  -0.000000  111.7600     0.4589
  -12.250     0.000  -0.993360   0.057395   0.009538   0.066934   0.000000  -0.000000  -0.130526   0.000000   0.000000  111.7600     0.4590
  -12.000     0.000  -0.972614   0.055021   0.009367   0.064388   0.000000  -0.000000  -0.128057   0.000000  -0.000000  111.7600     0.4590
  -11.750     0.000  -0.951807   0.052691   0.009198   0.061889   0.000000   0.000000  -0.125595   0.000000  -0.000000  111.7600     0.4589
  -11.500     0.000  -0.930990   0.050412   0.009035   0.059447   0.000000   0.000000  -0.123126   0.000000   0.000000  111.7600     0.4589
  -11.250     0.000  -0.910269   0.048193   0.008884   0.057077   0.000000   0.000000  -0.120630   0.000000   0.000000  111.7600     0.4589
  -11.000     0.000  -0.889422   0.046013   0.008733   0.054746   0.000000  -0.000000  -0.118163  -0.000000  -0.000000  111.7600     0.4588
  -10.750     0.000  -0.868346   0.043863   0.008582   0.052444   0.000000  -0.000000  -0.115736   0.000000   0.000000  111.7600     0.4587
  -10.500     0.000  -0.847236   0.041762   0.008433   0.050195   0.000000   0.000000  -0.113311  -0.000000  -0.000000  111.7600     0.4585
  -10.250     0.000  -0.826208   0.039721   0.008286   0.048007   0.000000   0.000000  -0.110866  -0.000000  -0.000000  111.7600     0.4584
  -10.000     0.000  -0.805358   0.037747   0.008144   0.045891   0.000000   0.000000  -0.108378  -0.000000  -0.000000  111.7600     0.4582
   -9.750     0.000  -0.784612   0.035833   0.008006   0.043839   0.000000   0.000000  -0.105863   0.000000   0.000000  111.7600     0.4581
   -9.500     0.000  -0.764024   0.033982   0.007871   0.041853   0.000000   0.000000  -0.103313  -0.000000  -0.000000  111.7600     0.4581
   -9.250     0.000  -0.743632   0.032196   0.007740   0.039935   0.000000   0.000000  -0.100720  -0.000000  -0.000000  111.7600     0.4581
   -9.000     0.000  -0.723305   0.030463   0.007612   0.038075   0.000000   0.000000  -0.098109  -0.000000  -0.000000  111.7600     0.4581
   -8.750     0.000  -0.703215   0.028796   0.007488   0.036284   0.000000   0.000000  -0.095447  -0.000000  -0.000000  111.7600     0.4582
   -8.500     0.000  -0.683177   0.027179   0.007367   0.034546   0.000000   0.000000  -0.092768  -0.000000  -0.000000  111.7600     0.4583
   -8.250     0.000  -0.663176   0.025612   0.007250   0.032862   0.000000   0.000000  -0.090069  -0.000000  -0.000000  111.7600     0.4584
   -8.000     0.000  -0.643205   0.024094   0.007135   0.031230   0.000000  -0.000000  -0.087356   0.000000   0.000000  111.7600     0.4585
   -7.750     0.000  -0.623206   0.022620   0.007023   0.029644   0.000000   0.000000  -0.084643  -0.000000  -0.000000  111.7600     0.4586
   -7.500     0.000  -0.603290   0.021198   0.006915   0.028113   0.000000   0.000000  -0.081906  -0.000000  -0.000000  111.7600     0.4588
   -7.250     0.000  -0.583420   0.019824   0.006809   0.026633   0.000000   0.000000  -0.079154  -0.000000  -0.000000  111.7600     0.4590
   -7.000     0.000  -0.563510   0.018494   0.006705   0.025199   0.000000   0.000000  -0.076407   0.000000   0.000000  111.7600     0.4592
   -6.750     0.000  -0.543566   0.017209   0.006605   0.023814   0.000000   0.000000  -0.073661  -0.000000  -0.000000  111.7600     0.4593
   -6.500     0.000  -0.523602   0.015968   0.006507   0.022475   0.000000   0.000000  -0.070918   0.000000  -0.000000  111.7600     0.4595
   -6.250     0.000  -0.503664   0.014775   0.006413   0.021188   0.000000   0.000000  -0.068167   0.000000   0.000000  111.7600     0.4597
   -6.000     0.000  -0.483759   0.013630   0.006320   0.019950   0.000000   0.000000  -0.065407  -0.000000  -0.000000  111.7600     0.4599
   -5.750     0.000  -0.463846   0.012530   0.006229   0.018760   0.000000   0.000000  -0.062648  -0.000000  -0.000000  111.7600     0.4601
   -5.500     0.000  -0.443917   0.011476   0.006140   0.017616   0.000000   0.000000  -0.059891  -0.000000  -0.000000  111.7600     0.4603
   -5.250     0.000  -0.423980   0.010468   0.006051   0.016520   0.000000   0.000000  -0.057134  -0.000000  -0.000000  111.7600     0.4605
   -5.000     0.000  -0.404029   0.009506   0.005964   0.015470   0.000000   0.000000  -0.054379   0.000000   0.000000  111.7600     0.4607
   -4.750     0.000  -0.384049   0.008589   0.005881   0.014469   0.000000   0.000000  -0.051628   0.000000  -0.000000  111.7600     0.4609
   -4.500     0.000  -0.364038   0.007717   0.005801   0.013518   0.000000   0.000000  -0.048883   0.000000  -0.000000  111.7600     0.4611
   -4.250     0.000  -0.343972   0.006889   0.005729   0.012618   0.000000   0.000000  -0.046149   0.000000  -0.000000  111.7600     0.4612
   -4.000     0.000  -0.323887   0.006108   0.005659   0.011767   0.000000   0.000000  -0.043417  -0.000000  -0.000000  111.7600     0.4614
   -3.750     0.000  -0.303781   0.005373   0.005592   0.010965   0.000000   0.000000  -0.040688   0.000000   0.000000  111.7600     0.4615
   -3.500     0.000  -0.283655   0.004684   0.005528   0.010213   0.000000   0.000000  -0.037961  -0.000000  -0.000000  111.7600     0.4617
   -3.250     0.000  -0.263507   0.004042   0.005469   0.009511   0.000000   0.000000  -0.035236   0.000000  -0.000000  111.7600     0.4618
   -3.000     0.000  -0.243316   0.003447   0.005417   0.008864   0.000000   0.000000  -0.032518  -0.000000  -0.000000  111.7600     0.4619
   -2.750     0.000  -0.223115   0.002898   0.005368   0.008266   0.000000   0.000000  -0.029800  -0.000000  -0.000000  111.7600     0.4620
   -2.500     0.000  -0.202901   0.002397   0.005322   0.007719   0.000000   0.000000  -0.027085   0.000000   0.000000  111.7600     0.4621
   -2.250     0.000  -0.182672   0.001943   0.005280   0.007223   0.000000   0.000000  -0.024372  -0.000000  -0.000000  111.7600     0.4622
   -2.000     0.000  -0.162432   0.001536   0.005242   0.006777   0.000000   0.000000  -0.021659   0.000000   0.000000  111.7600     0.4623
   -1.750     0.000  -0.142160   0.001176   0.005212   0.006388   0.000000   0.000000  -0.018948   0.000000  -0.000000  111.7600     0.4624
   -1.500     0.000  -0.121880   0.000865   0.005184   0.006049   0.000000  -0.000000  -0.016239   0.000000  -0.000000  111.7600     0.4624
   -1.250     0.000  -0.101592   0.000601   0.005160   0.005761   0.000000   0.000000  -0.013530  -0.000000  -0.000000  111.7600     0.4626
   -1.000     0.000  -0.081288   0.000385   0.005143   0.005527   0.000000   0.000000  -0.010824   0.000000   0.000000  111.7600     0.4627
   -0.750     0.000  -0.060985   0.000216   0.005125   0.005342   0.000000   0.000000  -0.008117   0.000000  -0.000000  111.7600     0.4638
   -0.500     0.000  -0.040663   0.000096   0.005117   0.005213   0.000000   0.000000  -0.005411   0.000000  -0.000000  111.7600     0.5076
   -0.250     0.000  -0.020335   0.000024   0.005112   0.005136   0.000000   0.000000  -0.002706   0.000000  -0.000000  111.7600     0.5665
    0.000     0.000   0.000000   0.000000   0.005108   0.005108   0.000000  -0.000000  -0.000000   0.000000   0.000000  111.7600     0.6575
    0.250     0.000   0.020335   0.000024   0.005112   0.005136   0.000000  -0.000000   0.002706   0.000000  -0.000000  111.7600     0.5665
    0.500     0.000   0.040663   0.000096   0.005117   0.005213   0.000000  -0.000000   0.005411   0.000000  -0.000000  111.7600     0.5076
    0.750     0.000   0.060985   0.000216   0.005125   0.005342   0.000000  -0.000000   0.008117   0.000000  -0.000000  111.7600     0.4638
    1.000     0.000   0.081289   0.000385   0.005143   0.005527   0.000000  -0.000000   0.010824  -0.000000  -0.000000  111.7600     0.4627
    1.250     0.000   0.101593   0.000601   0.005160   0.005761   0.000000  -0.000000   0.013530  -0.000000  -0.000000  111.7600     0.4626
    1.500     0.000   0.121880   0.000865   0.005184   0.006049   0.000000  -0.000000   0.016238   0.000000   0.000000  111.7600     0.4624
    1.750     0.000   0.142161   0.001176   0.005212   0.006388   0.000000  -0.000000   0.018948   0.000000   0.000000  111.7600     0.4624
    2.000     0.000   0.162433   0.001536   0.005242   0.006777   0.000000   0.000000   0.021658   0.000000   0.000000  111.7600     0.4623
    2.250     0.000   0.182674   0.001943   0.005280   0.007223   0.000000  -0.000000   0.024371   0.000000   0.000000  111.7600     0.4622
    2.500     0.000   0.202904   0.002397   0.005322   0.007719   0.000000  -0.000000   0.027085   0.000000  -0.000000  111.7600     0.4621
    2.750     0.000   0.223118   0.002898   0.005368   0.008266   0.000000  -0.000000   0.029800   0.000000  -0.000000  111.7600     0.4620
    3.000     0.000   0.243320   0.003447   0.005417   0.008864   0.000000  -0.000000   0.032517  -0.000000  -0.000000  111.7600     0.4619
    3.250     0.000   0.263511   0.004043   0.005469   0.009511   0.000000  -0.000000   0.035236   0.000000  -0.000000  111.7600     0.4618
    3.500     0.000   0.283660   0.004685   0.005528   0.010213   0.000000  -0.000000   0.037960   0.000000  -0.000000  111.7600     0.4617
    3.750     0.000   0.303787   0.005373   0.005592   0.010965   0.000000  -0.000000   0.040687   0.000000  -0.000000  111.7600     0.4615
    4.000     0.000   0.323894   0.006108   0.005659   0.011767   0.000000   0.000000   0.043416   0.000000  -0.000000  111.7600     0.4614
    4.250     0.000   0.343978   0.006889   0.005729   0.012618   0.000000  -0.000000   0.046147   0.000000   0.000000  111.7600     0.4612
    4.500     0.000   0.364042   0.007717   0.005802   0.013518   0.000000  -0.000000   0.048881  -0.000000  -0.000000  111.7600     0.4611
    4.750     0.000   0.384064   0.008589   0.005881   0.014470   0.000000   0.000000   0.051623   0.000000   0.000000  111.7600     0.4609
    5.000     0.000   0.404068   0.009507   0.005963   0.015470   0.000000  -0.000000   0.054367   0.000000  -0.000000  111.7600     0.4607
    5.250     0.000   0.424039   0.010471   0.006048   0.016519   0.000000  -0.000000   0.057117  -0.000000  -0.000000  111.7600     0.4605
    5.500     0.000   0.443979   0.011479   0.006136   0.017616   0.000000  -0.000000   0.059873  -0.000000  -0.000000  111.7600     0.4603
    5.750     0.000   0.463905   0.012533   0.006226   0.018759   0.000000  -0.000000   0.062632  -0.000000  -0.000000  111.7600     0.4601
    6.000     0.000   0.483807   0.013632   0.006318   0.019950   0.000000  -0.000000   0.065395  -0.000000  -0.000000  111.7600     0.4599
    6.250     0.000   0.503700   0.014777   0.006411   0.021188   0.000000  -0.000000   0.068158  -0.000000  -0.000000  111.7600     0.4597
    6.500     0.000   0.523628   0.015969   0.006507   0.022476   0.000000  -0.000000   0.070913  -0.000000  -0.000000  111.7600     0.4595
    6.750     0.000   0.543588   0.017210   0.006605   0.023815   0.000000  -0.000000   0.073657  -0.000000  -0.000000  111.7600     0.4593
    7.000     0.000   0.563530   0.018496   0.006705   0.025200   0.000000  -0.000000   0.076403  -0.000000  -0.000000  111.7600     0.4592
    7.250     0.000   0.583441   0.019826   0.006809   0.026635   0.000000  -0.000000   0.079150  -0.000000  -0.000000  111.7600     0.4590
    7.500     0.000   0.603312   0.021199   0.006915   0.028114   0.000000  -0.000000   0.081902  -0.000000  -0.000000  111.7600     0.4588
    7.750     0.000   0.623228   0.022622   0.007023   0.029645   0.000000  -0.000000   0.084639  -0.000000  -0.000000  111.7600     0.4586
    8.000     0.000   0.643228   0.024096   0.007135   0.031231   0.000000  -0.000000   0.087352   0.000000   0.000000  111.7600     0.4585
    8.250     0.000   0.663201   0.025614   0.007250   0.032864   0.000000  -0.000000   0.090064  -0.000000  -0.000000  111.7600     0.4584
    8.500     0.000   0.683203   0.027181   0.007367   0.034548   0.000000  -0.000000   0.092763  -0.000000  -0.000000  111.7600     0.4583
    8.750     0.000   0.703242   0.028798   0.007488   0.036286   0.000000  -0.000000   0.095442  -0.000000  -0.000000  111.7600     0.4582
    9.000     0.000   0.723333   0.030465   0.007612   0.038078   0.000000  -0.000000   0.098104  -0.000000  -0.000000  111.7600     0.4581
    9.250     0.000   0.743660   0.032198   0.007739   0.039938   0.000000  -0.000000   0.100715  -0.000000  -0.000000  111.7600     0.4581
    9.500     0.000   0.764053   0.033984   0.007871   0.041855   0.000000  -0.000000   0.103307  -0.000000  -0.000000  111.7600     0.4581
    9.750     0.000   0.784641   0.035835   0.008006   0.043841   0.000000  -0.000000   0.105858  -0.000000  -0.000000  111.7600     0.4581
   10.000     0.000   0.805389   0.037749   0.008144   0.045893   0.000000  -0.000000   0.108373   0.000000   0.000000  111.7600     0.4582
   10.250     0.000   0.826240   0.039724   0.008286   0.048010   0.000000  -0.000000   0.110861  -0.000000  -0.000000  111.7600     0.4584
   10.500     0.000   0.847266   0.041765   0.008433   0.050198   0.000000  -0.000000   0.113306  -0.000000  -0.000000  111.7600     0.4585
   10.750     0.000   0.868373   0.043865   0.008581   0.052447   0.000000  -0.000000   0.115731  -0.000000  -0.000000  111.7600     0.4587
   11.000     0.000   0.889447   0.046016   0.008733   0.054749   0.000000  -0.000000   0.118158  -0.000000  -0.000000  111.7600     0.4588
   11.250     0.000   0.910294   0.048196   0.008884   0.057079   0.000000  -0.000000   0.120626   0.000000   0.000000  111.7600     0.4589
   11.500     0.000   0.931016   0.050415   0.009035   0.059450   0.000000  -0.000000   0.123122   0.000000  -0.000000  111.7600     0.4589
   11.750     0.000   0.951835   0.052695   0.009197   0.061892   0.000000   0.000000   0.125590  -0.000000  -0.000000  111.7600     0.4589
   12.000     0.000   0.972642   0.055024   0.009367   0.064391   0.000000  -0.000000   0.128052  -0.000000  -0.000000  111.7600     0.4590
   12.250     0.000   0.993386   0.057398   0.009538   0.066936   0.000000  -0.000000   0.130522  -0.000000  -0.000000  111.7600     0.4590
   12.500     0.000   1.013852   0.059793   0.009710   0.069503   0.000000  -0.000000   0.133044   0.000000   0.000000  111.7600     0.4589
   12.750     0.000   1.033955   0.062197   0.009880   0.072077   0.000000  -0.000000   0.135618  -0.000000  -0.000000  111.7600     0.4587
   13.000     0.000   1.053534   0.064590   0.010064   0.074654   0.000000  -0.000000   0.138273  -0.000000  -0.000000  111.7600     0.4585
   13.250     0.000   1.072651   0.066976   0.010261   0.077237   0.000000  -0.000000   0.140982   0.000000   0.000000  111.7600     0.4581
   13.500     0.000   1.091674   0.069394   0.010454   0.079848   0.000000  -0.000000   0.143693  -0.000000  -0.000000  111.7600     0.4578
   13.750     0.000   1.110594   0.071839   0.010644   0.082483   0.000000  -0.000000   0.146401  -0.000000  -0.000000  111.7600     0.4574
   14.000     0.000   1.129389   0.074310   0.010833   0.085143   0.000000  -0.000000   0.149109  -0.000000  -0.000000  111.7600     0.4570
   14.250     0.000   1.148212   0.076826   0.011029   0.087855   0.000000  -0.000000   0.151802  -0.000000  -0.000000  111.7600     0.4567
   14.500     0.000   1.166746   0.079342   0.011233   0.090575   0.000000  -0.000000   0.154521  -0.000000  -0.000000  111.7600     0.4563
   14.750     0.000   1.185095   0.081874   0.011451   0.093325   0.000000   0.000000   0.157250  -0.000000  -0.000000  111.7600     0.4558
   15.000     0.000   1.203474   0.084452   0.011680   0.096132   0.000000  -0.000000   0.159957   0.000000   0.000000  111.7600     0.4554
   15.250     0.000   1.221609   0.087029   0.011916   0.098944   0.000000  -0.000000   0.162682  -0.000000  -0.000000  111.7600     0.4550
   15.500     0.000   1.239443   0.089594   0.012148   0.101742   0.000000  -0.000000   0.165446  -0.000000  -0.000000  111.7600     0.4545
   15.750     0.000   1.257327   0.092205   0.012381   0.104586   0.000000  -0.000000   0.168187  -0.000000  -0.000000  111.7600     0.4540
   16.000     0.000   1.275283   0.094865   0.012619   0.107484   0.000000  -0.000000   0.170901   0.000000  -0.000000  111.7600     0.4536
   16.250     0.000   1.293209   0.097559   0.012861   0.110420   0.000000  -0.000000   0.173612  -0.000000  -0.000000  111.7600     0.4532
   16.500     0.000   1.311005   0.100272   0.013113   0.113385   0.000000  -0.000000   0.176326   0.000000   0.000000  111.7600     0.4527
   16.750     0.000   1.328470   0.102964   0.013372   0.116336   0.000000  -0.000000   0.179083  -0.000000  -0.000000  111.7600     0.4522
   17.000     0.000   1.345764   0.105669   0.013642   0.119311   0.000000  -0.000000   0.181842  -0.000000  -0.000000  111.7600     0.4517
   17.250     0.000   1.362868   0.108384   0.013929   0.122313   0.000000  -0.000000   0.184601  -0.000000  -0.000000  111.7600     0.4512
   17.500     0.000   1.379825   0.111113   0.014232   0.125345   0.000000  -0.000000   0.187365  -0.000000  -0.000000  111.7600     0.4506
   17.750     0.000   1.396390   0.113818   0.014558   0.128377   0.000000  -0.000000   0.190152  -0.000000  -0.000000  111.7600     0.4501
   18.000     0.000   1.412843   0.116540   0.014889   0.131429   0.000000  -0.000000   0.192940  -0.000000  -0.000000  111.7600     0.4495
   18.250     0.000   1.429022   0.119254   0.015232   0.134487   0.000000  -0.000000   0.195729  -0.000000  -0.000000  111.7600     0.4489
   18.500     0.000   1.445022   0.121973   0.015582   0.137555   0.000000  -0.000000   0.198520  -0.000000  -0.000000  111.7600     0.4483
   18.750     0.000   1.460759   0.124681   0.015945   0.140627   0.000000  -0.000000   0.201308  -0.000000  -0.000000  111.7600     0.4477
   19.000     0.000   1.476165   0.127365   0.016325   0.143690   0.000000  -0.000000   0.204099  -0.000000  -0.000000  111.7600     0.4470
   19.250     0.000   1.491196   0.130021   0.016728   0.146749   0.000000   0.000000   0.206915  -0.000000  -0.000000  111.7600     0.4463
   19.500     0.000   1.505691   0.132621   0.017142   0.149763   0.000000   0.000000   0.209752  -0.000000  -0.000000  111.7600     0.4456
   19.750     0.000   1.519744   0.135176   0.017592   0.152768   0.000000   0.000000   0.212592  -0.000000  -0.000000  111.7600     0.4448
   20.000     0.000   1.533363   0.137688   0.018074   0.155762   0.000000   0.000000   0.215416  -0.000000  -0.000000  111.7600     0.4441
   20.250     0.000   1.546333   0.140117   0.018610   0.158727   0.000000  -0.000000   0.218226  -0.000000  -0.000000  111.7600     0.4432
   20.500     0.000   1.558770   0.142483   0.019207   0.161690   0.000000  -0.000000   0.220995  -0.000000  -0.000000  111.7600     0.4424
   20.750     0.000   1.570647   0.144782   0.019883   0.164665   0.000000  -0.000000   0.223718  -0.000000  -0.000000  111.7600     0.4416
   21.000     0.000   1.581193   0.146889   0.020727   0.167616   0.000000  -0.000000   0.226350  -0.000000  -0.000000  111.7600     0.4407
   21.250     0.000   1.589664   0.148728   0.021928   0.170656   0.000000  -0.000000   0.228804  -0.000000  -0.000000  111.7600     0.4397


