  
       XFOIL         Version 6.99
  
 Calculated polar for: NACA 0012                                       
  
 1 1 Reynolds number fixed          Mach number fixed         
  
 xtrf =   1.000 (top)        1.000 (bottom)  
 Mach =   0.361     Re =     4.500 e 6     Ncrit =   9.000
  
   alpha    CL        CD       CDp       CM     Top_Xtr  Bot_Xtr
  ------ -------- --------- --------- -------- -------- --------
  -6.000  -1.1678   0.01149   0.00596   0.0408   0.6051   0.0198
  -5.500  -1.1104   0.01094   0.00537   0.0430   0.6022   0.0226
  -5.000  -1.0526   0.01041   0.00483   0.0450   0.5989   0.0264
  -4.500  -0.9941   0.00990   0.00433   0.0468   0.5951   0.0315
  -4.000  -0.9353   0.00943   0.00388   0.0483   0.5907   0.0381
  -3.500  -0.8764   0.00897   0.00345   0.0497   0.5853   0.0479
  -3.000  -0.8172   0.00854   0.00307   0.0509   0.5790   0.0609
  -2.500  -0.7583   0.00811   0.00270   0.0520   0.5704   0.0798
  -2.000  -0.6993   0.00769   0.00236   0.0530   0.5592   0.1050
  -1.500  -0.6407   0.00727   0.00205   0.0539   0.5462   0.1394
  -1.000  -0.5821   0.00686   0.00177   0.0548   0.5303   0.1823
  -0.500  -0.5232   0.00649   0.00153   0.0555   0.5103   0.2295
  -0.000  -0.4644   0.00614   0.00132   0.0562   0.4887   0.2852
   0.500  -0.4049   0.00585   0.00115   0.0566   0.4646   0.3395
   1.000  -0.3459   0.00553   0.00099   0.0571   0.4365   0.4096
   1.500  -0.2865   0.00525   0.00086   0.0575   0.4078   0.4829
   2.000  -0.2305   0.00466   0.00068   0.0584   0.3774   0.6363
   2.500  -0.1674   0.00476   0.00071   0.0582   0.3425   0.6520
   3.000  -0.1043   0.00491   0.00075   0.0579   0.3063   0.6592
   3.500  -0.0412   0.00509   0.00082   0.0577   0.2675   0.6644
   4.000   0.0220   0.00531   0.00091   0.0574   0.2274   0.6685
   4.500   0.0850   0.00554   0.00102   0.0572   0.1912   0.6722
   5.000   0.1479   0.00581   0.00117   0.0571   0.1549   0.6754
   5.500   0.2109   0.00612   0.00136   0.0569   0.1211   0.6780
   6.000   0.2738   0.00641   0.00157   0.0569   0.0949   0.6811
