xflr5 v6.12

Wing name :        Q1noflaps
Wing polar name :  T1-253.0 mph-LLT
Freestream speed : 253.000 mph


   alpha      Beta       CL          CDi        CDv        CD         CY         Cl         Cm         Cn        Cni       QInf        XCP
  -18.250     0.000  -0.894109   0.021158   0.038917   0.060075   0.000000  -0.000000  -0.253390   0.000000  -0.000000  113.1011     0.6125
  -18.000     0.000  -0.893596   0.021209   0.037082   0.058291   0.000000  -0.000000  -0.251126   0.000000  -0.000000  113.1011     0.6170
  -17.750     0.000  -0.890748   0.021162   0.035383   0.056545   0.000000  -0.000000  -0.248681   0.000000  -0.000000  113.1011     0.6209
  -17.500     0.000  -0.887079   0.021113   0.033828   0.054941   0.000000   0.000000  -0.246146   0.000000  -0.000000  113.1011     0.6244
  -17.250     0.000  -0.881477   0.020952   0.032529   0.053481   0.000000   0.000000  -0.242674  -0.000000  -0.000000  113.1011     0.6285
  -17.000     0.000  -0.874107   0.020699   0.031356   0.052055   0.000000   0.000000  -0.238916  -0.000000  -0.000000  113.1011     0.6323
  -16.750     0.000  -0.866101   0.020408   0.030214   0.050622   0.000000   0.000000  -0.235047  -0.000000  -0.000000  113.1011     0.6360
  -16.500     0.000  -0.857117   0.020074   0.029148   0.049222   0.000000   0.000000  -0.231048  -0.000000  -0.000000  113.1011     0.6394
  -16.250     0.000  -0.848059   0.019729   0.028084   0.047813   0.000000   0.000000  -0.227072  -0.000000  -0.000000  113.1011     0.6428
  -16.000     0.000  -0.850311   0.018981   0.026245   0.045225   0.000000   0.000000  -0.227677  -0.000000  -0.000000  113.1011     0.6430
  -15.750     0.000  -0.852520   0.018343   0.024406   0.042749   0.000000   0.000000  -0.228304  -0.000000  -0.000000  113.1011     0.6432
  -15.500     0.000  -0.854355   0.017813   0.022594   0.040407   0.000000   0.000000  -0.228972  -0.000000   0.000000  113.1011     0.6432
  -15.250     0.000  -0.856119   0.017402   0.020788   0.038190   0.000000   0.000000  -0.229648  -0.000000   0.000000  113.1011     0.6433
  -15.000     0.000  -0.857571   0.017103   0.018997   0.036100   0.000000   0.000000  -0.230374  -0.000000   0.000000  113.1011     0.6432
  -14.750     0.000  -0.858866   0.016924   0.017214   0.034138   0.000000   0.000000  -0.231126  -0.000000   0.000000  113.1011     0.6431
  -14.500     0.000  -0.858744   0.016815   0.015580   0.032395   0.000000  -0.000000  -0.231382   0.000000  -0.000000  113.1011     0.6432
  -14.250     0.000  -0.848660   0.016380   0.015002   0.031381   0.000000   0.000000  -0.227866   0.000000  -0.000000  113.1011     0.6451
  -14.000     0.000  -0.838286   0.015941   0.014440   0.030381   0.000000   0.000000  -0.224330   0.000000  -0.000000  113.1011     0.6469
  -13.750     0.000  -0.827083   0.015480   0.013924   0.029404   0.000000   0.000000  -0.220717   0.000000  -0.000000  113.1011     0.6484
  -13.500     0.000  -0.815696   0.015019   0.013419   0.028438   0.000000   0.000000  -0.217087   0.000000   0.000000  113.1011     0.6500
  -13.250     0.000  -0.803916   0.014556   0.012943   0.027499   0.000000   0.000000  -0.213413  -0.000000   0.000000  113.1011     0.6514
  -13.000     0.000  -0.792069   0.014100   0.012479   0.026578   0.000000   0.000000  -0.209715  -0.000000   0.000000  113.1011     0.6529
  -12.750     0.000  -0.779825   0.013639   0.012033   0.025672   0.000000   0.000000  -0.205997  -0.000000   0.000000  113.1011     0.6542
  -12.500     0.000  -0.766662   0.013161   0.011665   0.024826   0.000000   0.000000  -0.202105  -0.000000   0.000000  113.1011     0.6554
  -12.250     0.000  -0.753050   0.012682   0.011336   0.024018   0.000000   0.000000  -0.198134  -0.000000   0.000000  113.1011     0.6566
  -12.000     0.000  -0.738871   0.012190   0.011035   0.023225   0.000000   0.000000  -0.194123  -0.000000   0.000000  113.1011     0.6576
  -11.750     0.000  -0.724823   0.011710   0.010746   0.022456   0.000000   0.000000  -0.190046  -0.000000  -0.000000  113.1011     0.6588
  -11.500     0.000  -0.710528   0.011226   0.010462   0.021688   0.000000   0.000000  -0.185897  -0.000000  -0.000000  113.1011     0.6600
  -11.250     0.000  -0.695237   0.010718   0.010189   0.020907   0.000000   0.000000  -0.181764  -0.000000  -0.000000  113.1011     0.6606
  -11.000     0.000  -0.679193   0.010201   0.009925   0.020126   0.000000   0.000000  -0.177651  -0.000000  -0.000000  113.1011     0.6608
  -10.750     0.000  -0.662327   0.009678   0.009713   0.019391   0.000000   0.000000  -0.173533  -0.000000  -0.000000  113.1011     0.6606
  -10.500     0.000  -0.644790   0.009152   0.009508   0.018660   0.000000  -0.000000  -0.169449  -0.000000  -0.000000  113.1011     0.6599
  -10.250     0.000  -0.625889   0.008611   0.009311   0.017922   0.000000   0.000000  -0.165517  -0.000000  -0.000000  113.1011     0.6580
  -10.000     0.000  -0.606608   0.008077   0.009119   0.017196   0.000000   0.000000  -0.161626  -0.000000  -0.000000  113.1011     0.6556
   -9.750     0.000  -0.587121   0.007555   0.008912   0.016468   0.000000   0.000000  -0.157763   0.000000  -0.000000  113.1011     0.6529
   -9.500     0.000  -0.567581   0.007050   0.008701   0.015751   0.000000  -0.000000  -0.153904  -0.000000  -0.000000  113.1011     0.6498
   -9.250     0.000  -0.546875   0.006541   0.008527   0.015068   0.000000   0.000000  -0.150223  -0.000000  -0.000000  113.1011     0.6453
   -9.000     0.000  -0.525559   0.006037   0.008375   0.014413   0.000000   0.000000  -0.146584  -0.000000  -0.000000  113.1011     0.6398
   -8.750     0.000  -0.503513   0.005540   0.008254   0.013794   0.000000   0.000000  -0.142995  -0.000000  -0.000000  113.1011     0.6331
   -8.500     0.000  -0.481231   0.005060   0.008139   0.013199   0.000000   0.000000  -0.139412  -0.000000  -0.000000  113.1011     0.6256
   -8.250     0.000  -0.458680   0.004596   0.008031   0.012627   0.000000   0.000000  -0.135842   0.000000  -0.000000  113.1011     0.6169
   -8.000     0.000  -0.435994   0.004152   0.007926   0.012077   0.000000   0.000000  -0.132276  -0.000000  -0.000000  113.1011     0.6073
   -7.750     0.000  -0.413124   0.003727   0.007823   0.011550   0.000000  -0.000000  -0.128714  -0.000000  -0.000000  113.1011     0.5962
   -7.500     0.000  -0.390134   0.003323   0.007722   0.011046   0.000000   0.000000  -0.125157  -0.000000  -0.000000  113.1011     0.5838
   -7.250     0.000  -0.367001   0.002940   0.007624   0.010564   0.000000   0.000000  -0.121603   0.000000  -0.000000  113.1011     0.5694
   -7.000     0.000  -0.343750   0.002579   0.007527   0.010107   0.000000   0.000000  -0.118057   0.000000  -0.000000  113.1011     0.5530
   -6.750     0.000  -0.320416   0.002241   0.007431   0.009671   0.000000  -0.000000  -0.114504  -0.000000  -0.000000  113.1011     0.5339
   -6.500     0.000  -0.296952   0.001924   0.007335   0.009260   0.000000   0.000000  -0.110960  -0.000000  -0.000000  113.1011     0.5109
   -6.250     0.000  -0.273420   0.001631   0.007242   0.008873   0.000000  -0.000000  -0.107416  -0.000000  -0.000000  113.1011     0.4844
   -6.000     0.000  -0.249775   0.001361   0.007149   0.008510   0.000000   0.000000  -0.103877   0.000000  -0.000000  113.1011     0.4520
   -5.750     0.000  -0.226082   0.001115   0.007057   0.008171   0.000000  -0.000000  -0.100336   0.000000  -0.000000  113.1011     0.4072
   -5.500     0.000  -0.202239   0.000892   0.006967   0.007859   0.000000   0.000000  -0.096806   0.000000  -0.000000  113.1011     0.3478
   -5.250     0.000  -0.178369   0.000693   0.006878   0.007571   0.000000   0.000000  -0.093277   0.000000  -0.000000  113.1011     0.2812
   -5.000     0.000  -0.154413   0.000520   0.006787   0.007306   0.000000   0.000000  -0.089749   0.000000  -0.000000  113.1011     0.1515
   -4.750     0.000  -0.130437   0.000371   0.006694   0.007064   0.000000   0.000000  -0.086220   0.000000  -0.000000  113.1011     0.0090
   -4.500     0.000  -0.106494   0.000247   0.006596   0.006844   0.000000   0.000000  -0.082685   0.000000  -0.000000  113.1011    -0.1738
   -4.250     0.000  -0.082567   0.000148   0.006496   0.006644   0.000000  -0.000000  -0.079147   0.000000  -0.000000  113.1011    -0.3993
   -4.000     0.000  -0.058680   0.000075   0.006390   0.006465   0.000000  -0.000000  -0.075612   0.000000  -0.000000  113.1011    -1.4735
   -3.750     0.000  -0.034898   0.000026   0.006271   0.006297   0.000000  -0.000000  -0.072079   0.000000  -0.000000  113.1011    -4.1391
   -3.500     0.000  -0.011106   0.000003   0.006152   0.006155   0.000000   0.000000  -0.068546   0.000000  -0.000000  113.1011    -6.1987
   -3.250     0.000   0.012830   0.000004   0.006035   0.006039   0.000000  -0.000000  -0.065041   0.000000  -0.000000  113.1011    -2.3862
   -3.000     0.000   0.036766   0.000030   0.005918   0.005948   0.000000  -0.000000  -0.061534   0.000000  -0.000000  113.1011     2.0134
   -2.750     0.000   0.060775   0.000081   0.005801   0.005882   0.000000  -0.000000  -0.058035   0.000000  -0.000000  113.1011     2.5723
   -2.500     0.000   0.084803   0.000157   0.005684   0.005841   0.000000   0.000000  -0.054536   0.000000  -0.000000  113.1011     2.0372
   -2.250     0.000   0.108823   0.000259   0.005564   0.005823   0.000000   0.000000  -0.051046  -0.000000  -0.000000  113.1011     1.6970
   -2.000     0.000   0.132804   0.000385   0.005442   0.005827   0.000000   0.000000  -0.047561   0.000000  -0.000000  113.1011     1.5507
   -1.750     0.000   0.156684   0.000536   0.005310   0.005846   0.000000  -0.000000  -0.044070   0.000000  -0.000000  113.1011     1.4265
   -1.500     0.000   0.180385   0.000710   0.005166   0.005876   0.000000  -0.000000  -0.040579  -0.000000  -0.000000  113.1011     1.3519
   -1.250     0.000   0.204006   0.000908   0.005014   0.005922   0.000000   0.000000  -0.037083  -0.000000  -0.000000  113.1011     1.2824
   -1.000     0.000   0.227294   0.001128   0.004831   0.005958   0.000000   0.000000  -0.033585  -0.000000  -0.000000  113.1011     1.2334
   -0.750     0.000   0.250611   0.001371   0.004645   0.006016   0.000000  -0.000000  -0.030100  -0.000000  -0.000000  113.1011     1.1927
   -0.500     0.000   0.274573   0.001645   0.004499   0.006144   0.000000   0.000000  -0.026665  -0.000000  -0.000000  113.1011     1.1620
   -0.250     0.000   0.298760   0.001947   0.004363   0.006310   0.000000  -0.000000  -0.023234   0.000000  -0.000000  113.1011     1.1359
    0.000     0.000   0.323046   0.002276   0.004230   0.006506   0.000000  -0.000000  -0.019821   0.000000  -0.000000  113.1011     1.1138
    0.250     0.000   0.347392   0.002631   0.004099   0.006730   0.000000  -0.000000  -0.016420   0.000000  -0.000000  113.1011     1.0932
    0.500     0.000   0.371952   0.003016   0.003985   0.007001   0.000000  -0.000000  -0.013055  -0.000000  -0.000000  113.1011     1.0753
    0.750     0.000   0.396643   0.003430   0.003874   0.007303   0.000000  -0.000000  -0.009711  -0.000000  -0.000000  113.1011     1.0604
    1.000     0.000   0.421577   0.003873   0.003783   0.007656   0.000000  -0.000000  -0.006390  -0.000000  -0.000000  113.1011     1.0473
    1.250     0.000   0.446722   0.004348   0.003712   0.008060   0.000000   0.000000  -0.003084  -0.000000  -0.000000  113.1011     1.0359
    1.500     0.000   0.471911   0.004850   0.003645   0.008495   0.000000  -0.000000   0.000212   0.000000  -0.000000  113.1011     1.0254
    1.750     0.000   0.497255   0.005383   0.003603   0.008985   0.000000  -0.000000   0.003507   0.000000  -0.000000  113.1011     1.0162
    2.000     0.000   0.522614   0.005944   0.003576   0.009519   0.000000  -0.000000   0.006808  -0.000000  -0.000000  113.1011     1.0076
    2.250     0.000   0.547916   0.006531   0.003564   0.010095   0.000000  -0.000000   0.010101  -0.000000  -0.000000  113.1011     1.0000
    2.500     0.000   0.573269   0.007147   0.003571   0.010718   0.000000  -0.000000   0.013398  -0.000000  -0.000000  113.1011     0.9930
    2.750     0.000   0.598590   0.007792   0.003588   0.011380   0.000000  -0.000000   0.016706  -0.000000  -0.000000  113.1011     0.9866
    3.000     0.000   0.624041   0.008469   0.003607   0.012076   0.000000  -0.000000   0.020008  -0.000000  -0.000000  113.1011     0.9807
    3.250     0.000   0.649464   0.009174   0.003635   0.012809   0.000000   0.000000   0.023319  -0.000000  -0.000000  113.1011     0.9752
    3.500     0.000   0.674486   0.009894   0.003685   0.013579   0.000000  -0.000000   0.026628  -0.000000  -0.000000  113.1011     0.9701
    3.750     0.000   0.698939   0.010623   0.003762   0.014384   0.000000  -0.000000   0.029939  -0.000000  -0.000000  113.1011     0.9653
    4.000     0.000   0.722645   0.011355   0.003876   0.015231   0.000000  -0.000000   0.033278  -0.000000  -0.000000  113.1011     0.9606
    4.250     0.000   0.745554   0.012086   0.004026   0.016112   0.000000  -0.000000   0.036648  -0.000000  -0.000000  113.1011     0.9562
    4.500     0.000   0.767869   0.012823   0.004202   0.017025   0.000000  -0.000000   0.040062  -0.000000  -0.000000  113.1011     0.9518
    4.750     0.000   0.790064   0.013580   0.004379   0.017959   0.000000  -0.000000   0.043499  -0.000000  -0.000000  113.1011     0.9476
    5.000     0.000   0.811692   0.014342   0.004575   0.018918   0.000000  -0.000000   0.047020  -0.000000  -0.000000  113.1011     0.9434
    5.250     0.000   0.832963   0.015113   0.004783   0.019897   0.000000   0.000000   0.050553  -0.000000  -0.000000  113.1011     0.9393
    5.500     0.000   0.853461   0.015879   0.005015   0.020894   0.000000   0.000000   0.054162  -0.000000  -0.000000  113.1011     0.9353
    5.750     0.000   0.873799   0.016657   0.005250   0.021907   0.000000  -0.000000   0.057785  -0.000000  -0.000000  113.1011     0.9313
    6.000     0.000   0.893855   0.017440   0.005482   0.022923   0.000000   0.000000   0.061439  -0.000000  -0.000000  113.1011     0.9274
    6.250     0.000   0.913743   0.018235   0.005712   0.023947   0.000000  -0.000000   0.065098  -0.000000  -0.000000  113.1011     0.9237
    6.500     0.000   0.933255   0.019037   0.005937   0.024974   0.000000  -0.000000   0.068813  -0.000000  -0.000000  113.1011     0.9200
    6.750     0.000   0.952596   0.019850   0.006159   0.026009   0.000000  -0.000000   0.072540  -0.000000  -0.000000  113.1011     0.9163
    7.000     0.000   0.971345   0.020655   0.006384   0.027039   0.000000  -0.000000   0.076299  -0.000000  -0.000000  113.1011     0.9127
    7.250     0.000   0.989519   0.021450   0.006614   0.028065   0.000000   0.000000   0.080074  -0.000000  -0.000000  113.1011     0.9091
    7.500     0.000   1.007414   0.022249   0.006836   0.029085   0.000000  -0.000000   0.083906  -0.000000  -0.000000  113.1011     0.9055
    7.750     0.000   1.025057   0.023054   0.007042   0.030096   0.000000  -0.000000   0.087782  -0.000000  -0.000000  113.1011     0.9019
    8.000     0.000   1.040664   0.023804   0.007254   0.031058   0.000000   0.000000   0.091943  -0.000000  -0.000000  113.1011     0.8979
    8.250     0.000   1.053982   0.024470   0.007474   0.031944   0.000000  -0.000000   0.096322  -0.000000  -0.000000  113.1011     0.8933
    8.500     0.000   1.066894   0.025121   0.007692   0.032813   0.000000  -0.000000   0.100625  -0.000000  -0.000000  113.1011     0.8890
    8.750     0.000   1.079348   0.025749   0.007908   0.033657   0.000000   0.000000   0.104938  -0.000000  -0.000000  113.1011     0.8846
    9.000     0.000   1.091022   0.026347   0.008144   0.034491   0.000000  -0.000000   0.109252  -0.000000  -0.000000  113.1011     0.8802
    9.250     0.000   1.101932   0.026921   0.008410   0.035332   0.000000  -0.000000   0.113564  -0.000000  -0.000000  113.1011     0.8758
    9.500     0.000   1.111487   0.027453   0.008727   0.036179   0.000000  -0.000000   0.117954  -0.000000  -0.000000  113.1011     0.8712
    9.750     0.000   1.119675   0.027914   0.009074   0.036987   0.000000  -0.000000   0.122328  -0.000000  -0.000000  113.1011     0.8665
   10.000     0.000   1.127908   0.028365   0.009447   0.037812   0.000000  -0.000000   0.126514  -0.000000  -0.000000  113.1011     0.8620
   10.250     0.000   1.135844   0.028806   0.009851   0.038657   0.000000  -0.000000   0.130661  -0.000000  -0.000000  113.1011     0.8576
   10.500     0.000   1.144303   0.029274   0.010280   0.039554   0.000000  -0.000000   0.134679  -0.000000  -0.000000  113.1011     0.8535
   10.750     0.000   1.153293   0.029760   0.010722   0.040482   0.000000  -0.000000   0.138624  -0.000000  -0.000000  113.1011     0.8496
   11.000     0.000   1.161462   0.030200   0.011227   0.041427   0.000000  -0.000000   0.142438  -0.000000  -0.000000  113.1011     0.8457
   11.250     0.000   1.169048   0.030625   0.011783   0.042409   0.000000  -0.000000   0.146189  -0.000000  -0.000000  113.1011     0.8418
   11.500     0.000   1.177309   0.031092   0.012372   0.043464   0.000000  -0.000000   0.149809  -0.000000  -0.000000  113.1011     0.8383
   11.750     0.000   1.185256   0.031552   0.013006   0.044557   0.000000  -0.000000   0.153347  -0.000000  -0.000000  113.1011     0.8348
   12.000     0.000   1.192160   0.031951   0.013725   0.045677   0.000000  -0.000000   0.156679  -0.000000  -0.000000  113.1011     0.8314
   12.250     0.000   1.199263   0.032354   0.014458   0.046813   0.000000  -0.000000   0.159914  -0.000000  -0.000000  113.1011     0.8281
   12.500     0.000   1.207194   0.032803   0.015197   0.048000   0.000000  -0.000000   0.163080  -0.000000  -0.000000  113.1011     0.8251
   12.750     0.000   1.214783   0.033242   0.015985   0.049227   0.000000  -0.000000   0.166258   0.000000  -0.000000  113.1011     0.8221
   13.000     0.000   1.222462   0.033681   0.016794   0.050475   0.000000   0.000000   0.169348   0.000000  -0.000000  113.1011     0.8191
   13.250     0.000   1.230556   0.034106   0.017595   0.051701   0.000000   0.000000   0.172297   0.000000  -0.000000  113.1011     0.8164
   13.500     0.000   1.239221   0.034564   0.018388   0.052953   0.000000   0.000000   0.175149  -0.000000  -0.000000  113.1011     0.8139
   13.750     0.000   1.247510   0.035026   0.019242   0.054267   0.000000   0.000000   0.177901  -0.000000  -0.000000  113.1011     0.8115
   14.000     0.000   1.255260   0.035476   0.020151   0.055627   0.000000  -0.000000   0.180538  -0.000000  -0.000000  113.1011     0.8092
   14.250     0.000   1.263373   0.035956   0.021071   0.057027   0.000000  -0.000000   0.183135  -0.000000  -0.000000  113.1011     0.8069
   14.500     0.000   1.272758   0.036496   0.021929   0.058425   0.000000  -0.000000   0.185769  -0.000000  -0.000000  113.1011     0.8048
   14.750     0.000   1.282681   0.037061   0.022773   0.059834   0.000000   0.000000   0.188364  -0.000000  -0.000000  113.1011     0.8029
   15.000     0.000   1.291781   0.037589   0.023681   0.061269   0.000000   0.000000   0.190840  -0.000000  -0.000000  113.1011     0.8009
   15.250     0.000   1.299527   0.038058   0.024710   0.062768   0.000000  -0.000000   0.193156  -0.000000  -0.000000  113.1011     0.7989
   15.500     0.000   1.307771   0.038558   0.025720   0.064278   0.000000  -0.000000   0.195461  -0.000000  -0.000000  113.1011     0.7970
   15.750     0.000   1.317122   0.039119   0.026670   0.065788   0.000000  -0.000000   0.197805  -0.000000  -0.000000  113.1011     0.7953
   16.000     0.000   1.326614   0.039693   0.027618   0.067311   0.000000  -0.000000   0.200160  -0.000000  -0.000000  113.1011     0.7935
   16.250     0.000   1.334760   0.040210   0.028722   0.068931   0.000000  -0.000000   0.202240  -0.000000  -0.000000  113.1011     0.7919
   16.500     0.000   1.342968   0.040708   0.029871   0.070579   0.000000   0.000000   0.204079  -0.000000  -0.000000  113.1011     0.7905
   16.750     0.000   1.352837   0.041277   0.031009   0.072286   0.000000   0.000000   0.205527  -0.000000  -0.000000  113.1011     0.7897
   17.000     0.000   1.363792   0.041914   0.032178   0.074092   0.000000   0.000000   0.206757  -0.000000  -0.000000  113.1011     0.7893
   17.250     0.000   1.376174   0.042614   0.033563   0.076177   0.000000   0.000000   0.207437  -0.000000  -0.000000  113.1011     0.7896
   17.500     0.000   1.388526   0.043320   0.035020   0.078340   0.000000   0.000000   0.208085  -0.000000  -0.000000  113.1011     0.7899
   17.750     0.000   1.398572   0.043914   0.036462   0.080376   0.000000   0.000000   0.208897  -0.000000  -0.000000  113.1011     0.7897
   18.000     0.000   1.407830   0.044492   0.037822   0.082314   0.000000   0.000000   0.210139  -0.000000  -0.000000  113.1011     0.7890
   18.250     0.000   1.421182   0.045284   0.039237   0.084521   0.000000  -0.000000   0.210921   0.000000  -0.000000  113.1011     0.7892
   18.500     0.000   1.434150   0.046027   0.040687   0.086713   0.000000  -0.000000   0.212059   0.000000  -0.000000  113.1011     0.7891
   18.750     0.000   1.448467   0.046916   0.042162   0.089078   0.000000  -0.000000   0.212793  -0.000000  -0.000000  113.1011     0.7894
   19.000     0.000   1.461188   0.047730   0.043738   0.091468   0.000000  -0.000000   0.213442  -0.000000  -0.000000  113.1011     0.7896
   19.250     0.000   1.473239   0.048506   0.045371   0.093876   0.000000   0.000000   0.214129  -0.000000  -0.000000  113.1011     0.7897
   19.500     0.000   1.485992   0.049350   0.046908   0.096258   0.000000   0.000000   0.215070  -0.000000  -0.000000  113.1011     0.7896
   19.750     0.000   1.498647   0.050199   0.048436   0.098634   0.000000  -0.000000   0.216091  -0.000000  -0.000000  113.1011     0.7893
   20.000     0.000   1.508648   0.050891   0.050116   0.101007   0.000000  -0.000000   0.217208  -0.000000  -0.000000  113.1011     0.7886
   20.250     0.000   1.519488   0.051662   0.051766   0.103428   0.000000  -0.000000   0.218345  -0.000000  -0.000000  113.1011     0.7880
   20.500     0.000   1.531544   0.052544   0.053384   0.105929   0.000000  -0.000000   0.219477  -0.000000  -0.000000  113.1011     0.7875
   20.750     0.000   1.542876   0.053405   0.055075   0.108481   0.000000  -0.000000   0.220621  -0.000000  -0.000000  113.1011     0.7870
   21.000     0.000   1.552852   0.054173   0.056843   0.111017   0.000000  -0.000000   0.221702   0.000000  -0.000000  113.1011     0.7863
   21.250     0.000   1.562480   0.054906   0.058551   0.113457   0.000000  -0.000000   0.222785   0.000000  -0.000000  113.1011     0.7855
   21.500     0.000   1.571530   0.055619   0.060314   0.115933   0.000000  -0.000000   0.223865   0.000000   0.000000  113.1011     0.7846
   21.750     0.000   1.579427   0.056284   0.062228   0.118511   0.000000  -0.000000   0.224899  -0.000000  -0.000000  113.1011     0.7837
   22.000     0.000   1.587204   0.056918   0.064101   0.121019   0.000000  -0.000000   0.225929  -0.000000  -0.000000  113.1011     0.7827
   22.250     0.000   1.594201   0.057481   0.065983   0.123464   0.000000  -0.000000   0.226771   0.000000   0.000000  113.1011     0.7817
   22.500     0.000   1.599699   0.057978   0.068045   0.126023   0.000000   0.000000   0.227432   0.000000   0.000000  113.1011     0.7808
   22.750     0.000   1.603946   0.058426   0.070229   0.128655   0.000000  -0.000000   0.228122   0.000000   0.000000  113.1011     0.7796
   23.000     0.000   1.609482   0.058959   0.072256   0.131215   0.000000  -0.000000   0.229016   0.000000   0.000000  113.1011     0.7784
   23.250     0.000   1.613497   0.059343   0.074410   0.133752   0.000000  -0.000000   0.229629   0.000000   0.000000  113.1011     0.7773
   23.500     0.000   1.614626   0.059533   0.076898   0.136431   0.000000  -0.000000   0.229667   0.000000   0.000000  113.1011     0.7763
   23.750     0.000   1.615141   0.059723   0.079441   0.139164   0.000000  -0.000000   0.229675   0.000000   0.000000  113.1011     0.7752
   24.000     0.000   1.614988   0.059880   0.082066   0.141945   0.000000   0.000000   0.229636   0.000000   0.000000  113.1011     0.7741
   24.250     0.000   1.613705   0.059950   0.084813   0.144763   0.000000   0.000000   0.229417   0.000000   0.000000  113.1011     0.7729
   24.500     0.000   1.612429   0.060001   0.087551   0.147552   0.000000  -0.000000   0.229172   0.000000   0.000000  113.1011     0.7718
   24.750     0.000   1.611970   0.060165   0.090128   0.150293   0.000000  -0.000000   0.229315   0.000000  -0.000000  113.1011     0.7704
   25.000     0.000   1.608811   0.060197   0.092983   0.153181   0.000000   0.000000   0.229091   0.000000  -0.000000  113.1011     0.7691
   25.250     0.000   1.603532   0.060031   0.096121   0.156152   0.000000  -0.000000   0.228211   0.000000   0.000000  113.1011     0.7680
   25.500     0.000   1.596410   0.059750   0.099367   0.159117   0.000000  -0.000000   0.227408   0.000000   0.000000  113.1011     0.7666
   25.750     0.000   1.587985   0.059466   0.102656   0.162122   0.000000   0.000000   0.226450   0.000000   0.000000  113.1011     0.7652
   26.000     0.000   1.580916   0.059193   0.106154   0.165347   0.000000   0.000000   0.225034   0.000000   0.000000  113.1011     0.7643
   26.250     0.000   1.571572   0.058908   0.109481   0.168389   0.000000  -0.000000   0.223874   0.000000   0.000000  113.1011     0.7630
   26.500     0.000   1.567749   0.058859   0.112829   0.171688   0.000000   0.000000   0.222679   0.000000   0.000000  113.1011     0.7622
   26.750     0.000   1.564317   0.058839   0.116177   0.175016   0.000000   0.000000   0.221399   0.000000  -0.000000  113.1011     0.7616
   27.000     0.000   1.557302   0.058543   0.120044   0.178587   0.000000   0.000000   0.218993   0.000000   0.000000  113.1011     0.7616
   27.250     0.000   1.548744   0.058118   0.124057   0.182175   0.000000  -0.000000   0.216267   0.000000   0.000000  113.1011     0.7617
   27.500     0.000   1.536819   0.057515   0.127792   0.185307   0.000000   0.000000   0.214152   0.000000   0.000000  113.1011     0.7608
   27.750     0.000   1.527557   0.057032   0.131866   0.188898   0.000000  -0.000000   0.211186   0.000000   0.000000  113.1011     0.7610
   28.000     0.000   1.516035   0.056466   0.135755   0.192221   0.000000   0.000000   0.208261   0.000000   0.000000  113.1011     0.7610
   28.250     0.000   1.506396   0.056136   0.140241   0.196376   0.000000  -0.000000   0.204862   0.000000   0.000000  113.1011     0.7615


