xflr5 v6.12

Wing name :        Q1noflaps
Wing polar name :  T1-110.0 mph-LLT
Freestream speed : 110.000 mph


   alpha      Beta       CL          CDi        CDv        CD         CY         Cl         Cm         Cn        Cni       QInf        XCP
  -15.750     0.000  -0.853427   0.016465   0.022373   0.038838   0.000000  -0.000000  -0.248937   0.000000  -0.000000   49.1744     0.6087
  -15.500     0.000  -0.848886   0.016214   0.021268   0.037481   0.000000  -0.000000  -0.245641   0.000000  -0.000000   49.1744     0.6127
  -15.250     0.000  -0.842853   0.015929   0.020315   0.036244   0.000000  -0.000000  -0.242283   0.000000  -0.000000   49.1744     0.6161
  -15.000     0.000  -0.835924   0.015624   0.019446   0.035069   0.000000   0.000000  -0.238869  -0.000000  -0.000000   49.1744     0.6191
  -14.750     0.000  -0.828157   0.015302   0.018653   0.033955   0.000000  -0.000000  -0.235424  -0.000000  -0.000000   49.1744     0.6218
  -14.500     0.000  -0.819559   0.014957   0.017930   0.032887   0.000000  -0.000000  -0.231907   0.000000  -0.000000   49.1744     0.6243
  -14.250     0.000  -0.810215   0.014599   0.017258   0.031857   0.000000   0.000000  -0.228375   0.000000  -0.000000   49.1744     0.6264
  -14.000     0.000  -0.800147   0.014222   0.016635   0.030857   0.000000   0.000000  -0.224778   0.000000   0.000000   49.1744     0.6283
  -13.750     0.000  -0.789423   0.013831   0.016055   0.029886   0.000000  -0.000000  -0.221180  -0.000000  -0.000000   49.1744     0.6299
  -13.500     0.000  -0.777966   0.013419   0.015516   0.028935   0.000000  -0.000000  -0.217522  -0.000000  -0.000000   49.1744     0.6313
  -13.250     0.000  -0.765947   0.012998   0.015013   0.028012   0.000000  -0.000000  -0.213855  -0.000000  -0.000000   49.1744     0.6324
  -13.000     0.000  -0.753448   0.012569   0.014539   0.027107   0.000000  -0.000000  -0.210140   0.000000  -0.000000   49.1744     0.6333
  -12.750     0.000  -0.740492   0.012134   0.014095   0.026229   0.000000  -0.000000  -0.206413  -0.000000  -0.000000   49.1744     0.6340
  -12.500     0.000  -0.727241   0.011698   0.013674   0.025371   0.000000  -0.000000  -0.202659  -0.000000  -0.000000   49.1744     0.6346
  -12.250     0.000  -0.713586   0.011259   0.013279   0.024538   0.000000   0.000000  -0.198887  -0.000000  -0.000000   49.1744     0.6351
  -12.000     0.000  -0.699737   0.010823   0.012901   0.023724   0.000000   0.000000  -0.195095  -0.000000  -0.000000   49.1744     0.6354
  -11.750     0.000  -0.685580   0.010390   0.012549   0.022939   0.000000   0.000000  -0.191273  -0.000000  -0.000000   49.1744     0.6356
  -11.500     0.000  -0.671284   0.009961   0.012210   0.022170   0.000000   0.000000  -0.187437  -0.000000  -0.000000   49.1744     0.6358
  -11.250     0.000  -0.656726   0.009533   0.011897   0.021430   0.000000  -0.000000  -0.183562  -0.000000  -0.000000   49.1744     0.6358
  -11.000     0.000  -0.642132   0.009114   0.011596   0.020710   0.000000   0.000000  -0.179667  -0.000000  -0.000000   49.1744     0.6359
  -10.750     0.000  -0.627210   0.008693   0.011319   0.020013   0.000000   0.000000  -0.175737  -0.000000  -0.000000   49.1744     0.6357
  -10.500     0.000  -0.612188   0.008278   0.011065   0.019343   0.000000  -0.000000  -0.171781  -0.000000  -0.000000   49.1744     0.6356
  -10.250     0.000  -0.596141   0.007841   0.010847   0.018688   0.000000   0.000000  -0.167788  -0.000000  -0.000000   49.1744     0.6347
  -10.000     0.000  -0.578736   0.007378   0.010656   0.018034   0.000000   0.000000  -0.163805  -0.000000  -0.000000   49.1744     0.6329
   -9.750     0.000  -0.560672   0.006915   0.010492   0.017407   0.000000  -0.000000  -0.159827  -0.000000  -0.000000   49.1744     0.6305
   -9.500     0.000  -0.542208   0.006459   0.010339   0.016798   0.000000  -0.000000  -0.155827   0.000000  -0.000000   49.1744     0.6276
   -9.250     0.000  -0.522550   0.005995   0.010200   0.016195   0.000000   0.000000  -0.151953  -0.000000  -0.000000   49.1744     0.6232
   -9.000     0.000  -0.502353   0.005537   0.010067   0.015604   0.000000   0.000000  -0.148141  -0.000000  -0.000000   49.1744     0.6179
   -8.750     0.000  -0.481701   0.005089   0.009929   0.015018   0.000000  -0.000000  -0.144366  -0.000000  -0.000000   49.1744     0.6116
   -8.500     0.000  -0.460648   0.004652   0.009796   0.014448   0.000000   0.000000  -0.140645  -0.000000  -0.000000   49.1744     0.6042
   -8.250     0.000  -0.439361   0.004230   0.009662   0.013892   0.000000   0.000000  -0.136940  -0.000000  -0.000000   49.1744     0.5956
   -8.000     0.000  -0.418116   0.003829   0.009516   0.013344   0.000000   0.000000  -0.133209  -0.000000  -0.000000   49.1744     0.5865
   -7.750     0.000  -0.396721   0.003444   0.009368   0.012812   0.000000   0.000000  -0.129495  -0.000000  -0.000000   49.1744     0.5759
   -7.500     0.000  -0.375240   0.003079   0.009216   0.012295   0.000000   0.000000  -0.125796  -0.000000  -0.000000   49.1744     0.5640
   -7.250     0.000  -0.353729   0.002734   0.009059   0.011793   0.000000   0.000000  -0.122105  -0.000000  -0.000000   49.1744     0.5505
   -7.000     0.000  -0.331943   0.002407   0.008907   0.011313   0.000000   0.000000  -0.118450   0.000000  -0.000000   49.1744     0.5347
   -6.750     0.000  -0.310087   0.002099   0.008754   0.010854   0.000000   0.000000  -0.114795  -0.000000  -0.000000   49.1744     0.5164
   -6.500     0.000  -0.287883   0.001809   0.008614   0.010423   0.000000   0.000000  -0.111171  -0.000000  -0.000000   49.1744     0.4942
   -6.250     0.000  -0.265559   0.001539   0.008479   0.010018   0.000000   0.000000  -0.107543   0.000000  -0.000000   49.1744     0.4687
   -6.000     0.000  -0.242917   0.001288   0.008354   0.009642   0.000000   0.000000  -0.103939   0.000000  -0.000000   49.1744     0.4361
   -5.750     0.000  -0.220206   0.001059   0.008231   0.009290   0.000000   0.000000  -0.100331   0.000000  -0.000000   49.1744     0.3988
   -5.500     0.000  -0.197269   0.000850   0.008117   0.008966   0.000000   0.000000  -0.096740   0.000000  -0.000000   49.1744     0.3469
   -5.250     0.000  -0.174290   0.000664   0.008002   0.008666   0.000000  -0.000000  -0.093150   0.000000  -0.000000   49.1744     0.2893
   -5.000     0.000  -0.151330   0.000501   0.007881   0.008382   0.000000   0.000000  -0.089543   0.000000  -0.000000   49.1744     0.1981
   -4.750     0.000  -0.128417   0.000361   0.007754   0.008115   0.000000   0.000000  -0.085925   0.000000  -0.000000   49.1744     0.0971
   -4.500     0.000  -0.105731   0.000245   0.007609   0.007853   0.000000   0.000000  -0.082314   0.000000  -0.000000   49.1744    -0.0919
   -4.250     0.000  -0.083248   0.000152   0.007449   0.007600   0.000000  -0.000000  -0.078699   0.000000  -0.000000   49.1744    -0.3380
   -4.000     0.000  -0.060677   0.000081   0.007292   0.007372   0.000000  -0.000000  -0.075097  -0.000000  -0.000000   49.1744    -1.1222
   -3.750     0.000  -0.037889   0.000032   0.007144   0.007176   0.000000   0.000000  -0.071520   0.000000  -0.000000   49.1744    -2.9091
   -3.500     0.000  -0.015087   0.000005   0.006997   0.007002   0.000000   0.000000  -0.067944   0.000000   0.000000   49.1744    -4.1632
   -3.250     0.000   0.007873   0.000002   0.006854   0.006856   0.000000   0.000000  -0.064377  -0.000000   0.000000   49.1744    -1.0308
   -3.000     0.000   0.030834   0.000021   0.006711   0.006732   0.000000  -0.000000  -0.060808   0.000000  -0.000000   49.1744     2.6805
   -2.750     0.000   0.053691   0.000063   0.006553   0.006616   0.000000   0.000000  -0.057240   0.000000  -0.000000   49.1744     2.8191
   -2.500     0.000   0.076521   0.000128   0.006390   0.006518   0.000000  -0.000000  -0.053670   0.000000  -0.000000   49.1744     2.1554
   -2.250     0.000   0.098931   0.000214   0.006188   0.006402   0.000000   0.000000  -0.050062  -0.000000  -0.000000   49.1744     1.7627
   -2.000     0.000   0.121156   0.000322   0.005964   0.006286   0.000000  -0.000000  -0.046436   0.000000  -0.000000   49.1744     1.5877
   -1.750     0.000   0.143132   0.000450   0.005707   0.006157   0.000000  -0.000000  -0.042791   0.000000  -0.000000   49.1744     1.4448
   -1.500     0.000   0.164834   0.000598   0.005410   0.006008   0.000000   0.000000  -0.039149   0.000000  -0.000000   49.1744     1.3633
   -1.250     0.000   0.187007   0.000769   0.005146   0.005915   0.000000  -0.000000  -0.035585   0.000000  -0.000000   49.1744     1.2915
   -1.000     0.000   0.209756   0.000966   0.004904   0.005870   0.000000   0.000000  -0.032156   0.000000  -0.000000   49.1744     1.2411
   -0.750     0.000   0.232747   0.001187   0.004679   0.005867   0.000000  -0.000000  -0.028784  -0.000000  -0.000000   49.1744     1.1980
   -0.500     0.000   0.256862   0.001443   0.004537   0.005980   0.000000  -0.000000  -0.025455   0.000000  -0.000000   49.1744     1.1647
   -0.250     0.000   0.281253   0.001728   0.004412   0.006140   0.000000  -0.000000  -0.022111   0.000000  -0.000000   49.1744     1.1353
    0.000     0.000   0.306208   0.002046   0.004338   0.006383   0.000000  -0.000000  -0.018775   0.000000  -0.000000   49.1744     1.1116
    0.250     0.000   0.331581   0.002396   0.004303   0.006699   0.000000  -0.000000  -0.015420  -0.000000  -0.000000   49.1744     1.0908
    0.500     0.000   0.357060   0.002778   0.004279   0.007057   0.000000  -0.000000  -0.012071  -0.000000  -0.000000   49.1744     1.0731
    0.750     0.000   0.382684   0.003190   0.004272   0.007462   0.000000  -0.000000  -0.008720  -0.000000  -0.000000   49.1744     1.0578
    1.000     0.000   0.408446   0.003633   0.004279   0.007912   0.000000  -0.000000  -0.005370   0.000000  -0.000000   49.1744     1.0443
    1.250     0.000   0.434137   0.004104   0.004286   0.008389   0.000000  -0.000000  -0.002020  -0.000000  -0.000000   49.1744     1.0326
    1.500     0.000   0.459803   0.004602   0.004293   0.008895   0.000000  -0.000000   0.001328  -0.000000  -0.000000   49.1744     1.0219
    1.750     0.000   0.485472   0.005130   0.004306   0.009436   0.000000  -0.000000   0.004670  -0.000000  -0.000000   49.1744     1.0126
    2.000     0.000   0.511095   0.005685   0.004325   0.010010   0.000000  -0.000000   0.008009  -0.000000  -0.000000   49.1744     1.0040
    2.250     0.000   0.536597   0.006265   0.004345   0.010610   0.000000  -0.000000   0.011345  -0.000000  -0.000000   49.1744     0.9964
    2.500     0.000   0.562071   0.006874   0.004368   0.011242   0.000000  -0.000000   0.014675  -0.000000  -0.000000   49.1744     0.9893
    2.750     0.000   0.587454   0.007508   0.004397   0.011905   0.000000  -0.000000   0.018005  -0.000000  -0.000000   49.1744     0.9829
    3.000     0.000   0.612831   0.008171   0.004422   0.012593   0.000000  -0.000000   0.021331  -0.000000  -0.000000   49.1744     0.9770
    3.250     0.000   0.638160   0.008861   0.004451   0.013312   0.000000   0.000000   0.024665  -0.000000  -0.000000   49.1744     0.9715
    3.500     0.000   0.663618   0.009584   0.004473   0.014057   0.000000  -0.000000   0.027991  -0.000000  -0.000000   49.1744     0.9665
    3.750     0.000   0.689077   0.010334   0.004490   0.014824   0.000000   0.000000   0.031313  -0.000000  -0.000000   49.1744     0.9618
    4.000     0.000   0.714563   0.011114   0.004506   0.015620   0.000000  -0.000000   0.034629  -0.000000  -0.000000   49.1744     0.9574
    4.250     0.000   0.740028   0.011921   0.004523   0.016444   0.000000   0.000000   0.037932  -0.000000  -0.000000   49.1744     0.9533
    4.500     0.000   0.765401   0.012752   0.004543   0.017296   0.000000  -0.000000   0.041233  -0.000000  -0.000000   49.1744     0.9495
    4.750     0.000   0.790532   0.013603   0.004572   0.018175   0.000000  -0.000000   0.044529  -0.000000  -0.000000   49.1744     0.9459
    5.000     0.000   0.815400   0.014471   0.004611   0.019082   0.000000   0.000000   0.047823  -0.000000  -0.000000   49.1744     0.9424
    5.250     0.000   0.840130   0.015362   0.004657   0.020019   0.000000  -0.000000   0.051124  -0.000000  -0.000000   49.1744     0.9391
    5.500     0.000   0.864687   0.016275   0.004708   0.020983   0.000000  -0.000000   0.054445  -0.000000  -0.000000   49.1744     0.9359
    5.750     0.000   0.888897   0.017201   0.004774   0.021975   0.000000  -0.000000   0.057767  -0.000000  -0.000000   49.1744     0.9328
    6.000     0.000   0.911271   0.018081   0.004920   0.023002   0.000000  -0.000000   0.061152  -0.000000  -0.000000   49.1744     0.9296
    6.250     0.000   0.932300   0.018933   0.005124   0.024056   0.000000  -0.000000   0.064581  -0.000000  -0.000000   49.1744     0.9263
    6.500     0.000   0.951519   0.019734   0.005396   0.025130   0.000000  -0.000000   0.068162  -0.000000  -0.000000   49.1744     0.9228
    6.750     0.000   0.970112   0.020525   0.005687   0.026212   0.000000  -0.000000   0.071776  -0.000000  -0.000000   49.1744     0.9192
    7.000     0.000   0.987963   0.021307   0.005987   0.027294   0.000000  -0.000000   0.075482  -0.000000  -0.000000   49.1744     0.9156
    7.250     0.000   1.004749   0.022063   0.006304   0.028368   0.000000  -0.000000   0.079306  -0.000000  -0.000000   49.1744     0.9118
    7.500     0.000   1.020774   0.022805   0.006623   0.029428   0.000000   0.000000   0.083200  -0.000000  -0.000000   49.1744     0.9079
    7.750     0.000   1.035703   0.023511   0.006945   0.030456   0.000000  -0.000000   0.087209  -0.000000  -0.000000   49.1744     0.9039
    8.000     0.000   1.049660   0.024193   0.007247   0.031440   0.000000   0.000000   0.091352  -0.000000  -0.000000   49.1744     0.8996
    8.250     0.000   1.061911   0.024815   0.007529   0.032344   0.000000   0.000000   0.095693  -0.000000  -0.000000   49.1744     0.8950
    8.500     0.000   1.072316   0.025369   0.007832   0.033200   0.000000   0.000000   0.100165  -0.000000  -0.000000   49.1744     0.8902
    8.750     0.000   1.081375   0.025865   0.008150   0.034015   0.000000  -0.000000   0.104692  -0.000000  -0.000000   49.1744     0.8851
    9.000     0.000   1.089419   0.026314   0.008486   0.034801   0.000000   0.000000   0.109229  -0.000000  -0.000000   49.1744     0.8800
    9.250     0.000   1.097091   0.026752   0.008845   0.035596   0.000000   0.000000   0.113720  -0.000000  -0.000000   49.1744     0.8750
    9.500     0.000   1.104655   0.027188   0.009228   0.036416   0.000000   0.000000   0.118114  -0.000000  -0.000000   49.1744     0.8701
    9.750     0.000   1.111527   0.027582   0.009632   0.037214   0.000000  -0.000000   0.122492  -0.000000  -0.000000   49.1744     0.8651
   10.000     0.000   1.117826   0.027949   0.010087   0.038035   0.000000  -0.000000   0.126807  -0.000000  -0.000000   49.1744     0.8603
   10.250     0.000   1.123508   0.028293   0.010597   0.038890   0.000000   0.000000   0.130996  -0.000000  -0.000000   49.1744     0.8554
   10.500     0.000   1.127707   0.028577   0.011220   0.039797   0.000000  -0.000000   0.135029  -0.000000  -0.000000   49.1744     0.8506
   10.750     0.000   1.131620   0.028845   0.011896   0.040740   0.000000  -0.000000   0.138979  -0.000000  -0.000000   49.1744     0.8459
   11.000     0.000   1.135652   0.029105   0.012642   0.041747   0.000000  -0.000000   0.142657  -0.000000  -0.000000   49.1744     0.8415
   11.250     0.000   1.139922   0.029376   0.013433   0.042808   0.000000  -0.000000   0.146243  -0.000000  -0.000000   49.1744     0.8373
   11.500     0.000   1.145117   0.029671   0.014240   0.043911   0.000000   0.000000   0.149649  -0.000000  -0.000000   49.1744     0.8334
   11.750     0.000   1.151218   0.030001   0.015037   0.045039   0.000000  -0.000000   0.152984   0.000000  -0.000000   49.1744     0.8298
   12.000     0.000   1.156981   0.030312   0.015899   0.046211   0.000000  -0.000000   0.156192  -0.000000  -0.000000   49.1744     0.8263
   12.250     0.000   1.162368   0.030601   0.016800   0.047401   0.000000  -0.000000   0.159306   0.000000  -0.000000   49.1744     0.8229
   12.500     0.000   1.168845   0.030949   0.017687   0.048636   0.000000  -0.000000   0.162346   0.000000  -0.000000   49.1744     0.8197
   12.750     0.000   1.175188   0.031306   0.018609   0.049916   0.000000  -0.000000   0.165313   0.000000   0.000000   49.1744     0.8166
   13.000     0.000   1.180320   0.031582   0.019624   0.051206   0.000000  -0.000000   0.168102   0.000000   0.000000   49.1744     0.8136
   13.250     0.000   1.185869   0.031872   0.020638   0.052510   0.000000  -0.000000   0.170810   0.000000  -0.000000   49.1744     0.8107
   13.500     0.000   1.192357   0.032213   0.021626   0.053839   0.000000  -0.000000   0.173493  -0.000000  -0.000000   49.1744     0.8080
   13.750     0.000   1.198992   0.032583   0.022636   0.055220   0.000000   0.000000   0.176154  -0.000000  -0.000000   49.1744     0.8054
   14.000     0.000   1.206026   0.032974   0.023656   0.056630   0.000000  -0.000000   0.178761  -0.000000  -0.000000   49.1744     0.8029
   14.250     0.000   1.213064   0.033354   0.024699   0.058053   0.000000  -0.000000   0.181272  -0.000000  -0.000000   49.1744     0.8005
   14.500     0.000   1.221029   0.033761   0.025756   0.059517   0.000000   0.000000   0.183436  -0.000000  -0.000000   49.1744     0.7987
   14.750     0.000   1.229778   0.034197   0.026812   0.061009   0.000000  -0.000000   0.185319  -0.000000  -0.000000   49.1744     0.7973
   15.000     0.000   1.241789   0.034779   0.027872   0.062651   0.000000  -0.000000   0.186775  -0.000000  -0.000000   49.1744     0.7969
   15.250     0.000   1.255517   0.035473   0.028947   0.064420   0.000000  -0.000000   0.187989  -0.000000  -0.000000   49.1744     0.7971
   15.500     0.000   1.269718   0.036188   0.030083   0.066271   0.000000  -0.000000   0.189018  -0.000000  -0.000000   49.1744     0.7974
   15.750     0.000   1.285361   0.036953   0.031299   0.068252   0.000000   0.000000   0.189838  -0.000000  -0.000000   49.1744     0.7982
   16.000     0.000   1.301941   0.037780   0.032514   0.070294   0.000000  -0.000000   0.190852  -0.000000  -0.000000   49.1744     0.7989
   16.250     0.000   1.318051   0.038648   0.033716   0.072364   0.000000   0.000000   0.192022  -0.000000  -0.000000   49.1744     0.7993
   16.500     0.000   1.330201   0.039357   0.034948   0.074304   0.000000   0.000000   0.193520  -0.000000  -0.000000   49.1744     0.7988
   16.750     0.000   1.344414   0.040207   0.036225   0.076432   0.000000   0.000000   0.194988  -0.000000  -0.000000   49.1744     0.7985
   17.000     0.000   1.361750   0.041275   0.037596   0.078871   0.000000   0.000000   0.196440  -0.000000  -0.000000   49.1744     0.7986
   17.250     0.000   1.378308   0.042325   0.038928   0.081252   0.000000   0.000000   0.197977  -0.000000  -0.000000   49.1744     0.7987
   17.500     0.000   1.389738   0.043090   0.040246   0.083335   0.000000   0.000000   0.199616  -0.000000  -0.000000   49.1744     0.7978
   17.750     0.000   1.401219   0.043893   0.041726   0.085619   0.000000   0.000000   0.201138  -0.000000  -0.000000   49.1744     0.7971
   18.000     0.000   1.414570   0.044860   0.043296   0.088156   0.000000  -0.000000   0.202676  -0.000000  -0.000000   49.1744     0.7965
   18.250     0.000   1.427042   0.045768   0.044834   0.090602   0.000000   0.000000   0.204273  -0.000000  -0.000000   49.1744     0.7958
   18.500     0.000   1.435006   0.046373   0.046451   0.092825   0.000000   0.000000   0.205709  -0.000000  -0.000000   49.1744     0.7946
   18.750     0.000   1.437909   0.046613   0.048214   0.094827   0.000000   0.000000   0.206929  -0.000000  -0.000000   49.1744     0.7930
   19.000     0.000   1.445444   0.047247   0.050061   0.097307   0.000000   0.000000   0.208126  -0.000000  -0.000000   49.1744     0.7919
   19.250     0.000   1.454187   0.047961   0.051782   0.099743   0.000000  -0.000000   0.209406  -0.000000  -0.000000   49.1744     0.7910
   19.500     0.000   1.460006   0.048461   0.053635   0.102096   0.000000   0.000000   0.210478  -0.000000  -0.000000   49.1744     0.7899
   19.750     0.000   1.463019   0.048700   0.055607   0.104307   0.000000   0.000000   0.211376  -0.000000  -0.000000   49.1744     0.7885
   20.000     0.000   1.466598   0.048978   0.057519   0.106498   0.000000   0.000000   0.212337  -0.000000  -0.000000   49.1744     0.7871
   20.250     0.000   1.472600   0.049472   0.059306   0.108778   0.000000   0.000000   0.213474  -0.000000  -0.000000   49.1744     0.7859
   20.500     0.000   1.477627   0.049907   0.061239   0.111147   0.000000   0.000000   0.214464  -0.000000  -0.000000   49.1744     0.7847
   20.750     0.000   1.482022   0.050313   0.063255   0.113568   0.000000  -0.000000   0.215438  -0.000000  -0.000000   49.1744     0.7834
   21.000     0.000   1.486505   0.050698   0.065237   0.115935   0.000000   0.000000   0.216300  -0.000000  -0.000000   49.1744     0.7822
   21.250     0.000   1.491091   0.051095   0.067201   0.118296   0.000000   0.000000   0.217192  -0.000000  -0.000000   49.1744     0.7810
   21.500     0.000   1.494348   0.051415   0.069284   0.120699   0.000000   0.000000   0.217978  -0.000000  -0.000000   49.1744     0.7797
   21.750     0.000   1.496541   0.051675   0.071442   0.123117   0.000000   0.000000   0.218751   0.000000  -0.000000   49.1744     0.7782
   22.000     0.000   1.497537   0.051847   0.073752   0.125599   0.000000  -0.000000   0.219245   0.000000  -0.000000   49.1744     0.7769
   22.250     0.000   1.498804   0.052035   0.076024   0.128059   0.000000   0.000000   0.219770   0.000000   0.000000   49.1744     0.7755
   22.500     0.000   1.499493   0.052193   0.078364   0.130557   0.000000  -0.000000   0.220204   0.000000   0.000000   49.1744     0.7741
   22.750     0.000   1.498862   0.052284   0.080876   0.133160   0.000000   0.000000   0.220474   0.000000   0.000000   49.1744     0.7727
   23.000     0.000   1.496714   0.052268   0.083605   0.135874   0.000000   0.000000   0.220374   0.000000   0.000000   49.1744     0.7715
   23.250     0.000   1.494093   0.052230   0.086377   0.138607   0.000000  -0.000000   0.220222   0.000000   0.000000   49.1744     0.7702
   23.500     0.000   1.490540   0.052130   0.089321   0.141451   0.000000  -0.000000   0.219716   0.000000   0.000000   49.1744     0.7690
   23.750     0.000   1.487357   0.052056   0.092218   0.144273   0.000000  -0.000000   0.219358   0.000000   0.000000   49.1744     0.7678
   24.000     0.000   1.485295   0.052077   0.095007   0.147084   0.000000   0.000000   0.219264   0.000000   0.000000   49.1744     0.7665
   24.250     0.000   1.482567   0.052006   0.098030   0.150036   0.000000   0.000000   0.218715   0.000000   0.000000   49.1744     0.7655
   24.500     0.000   1.478112   0.051819   0.101318   0.153136   0.000000   0.000000   0.217644   0.000000   0.000000   49.1744     0.7647
   24.750     0.000   1.473119   0.051640   0.104631   0.156271   0.000000   0.000000   0.216515   0.000000   0.000000   49.1744     0.7639
   25.000     0.000   1.468012   0.051451   0.108046   0.159497   0.000000   0.000000   0.215160   0.000000   0.000000   49.1744     0.7633
   25.250     0.000   1.463103   0.051271   0.111609   0.162881   0.000000  -0.000000   0.213669   0.000000   0.000000   49.1744     0.7628
   25.500     0.000   1.458062   0.051073   0.115172   0.166245   0.000000  -0.000000   0.212177   0.000000   0.000000   49.1744     0.7623
   25.750     0.000   1.451897   0.050768   0.118759   0.169527   0.000000   0.000000   0.210386   0.000000   0.000000   49.1744     0.7619
   26.000     0.000   1.445963   0.050496   0.122558   0.173054   0.000000  -0.000000   0.208286   0.000000   0.000000   49.1744     0.7619
   26.250     0.000   1.440137   0.050248   0.126576   0.176824   0.000000  -0.000000   0.205915   0.000000   0.000000   49.1744     0.7621
   26.500     0.000   1.434041   0.050014   0.130751   0.180765   0.000000  -0.000000   0.203332   0.000000   0.000000   49.1744     0.7625
   26.750     0.000   1.427589   0.049775   0.135022   0.184797   0.000000  -0.000000   0.200599   0.000000   0.000000   49.1744     0.7629
   27.000     0.000   1.420513   0.049517   0.139451   0.188968   0.000000  -0.000000   0.197654   0.000000   0.000000   49.1744     0.7635
   27.250     0.000   1.412798   0.049234   0.144024   0.193259   0.000000  -0.000000   0.194344   0.000000   0.000000   49.1744     0.7644
   28.000     0.000   1.384442   0.048597   0.159057   0.207654   0.000000  -0.000000   0.182890   0.000000   0.000000   49.1744     0.7679
   28.250     0.000   1.376082   0.048298   0.163807   0.212106   0.000000  -0.000000   0.179205   0.000000   0.000000   49.1744     0.7692
   28.500     0.000   1.365236   0.048043   0.169131   0.217175   0.000000  -0.000000   0.174131   0.000000   0.000000   49.1744     0.7717


